32
comment
Ar 5.17876 1.57792 5.29987 -33.5026 -4.64365 27.4917 
Ar 6.0013 3.01238 2.57303 23.9764 -12.6724 -14.8492 
Ar 6.35091 1.77125 3.61564 -18.2379 -0.677027 -6.41247 
Ar 1.77714 1.1339 6.64561 6.57987 4.12548 -0.766346 
Ar 3.56132 0.845257 3.2459 -15.0288 14.0092 7.27964 
Ar 0.420179 4.21853 2.83896 -5.68297 4.38139 20.674 
Ar 3.43858 2.73285 3.59046 -4.76154 15.5467 26.9441 
Ar 1.51327 2.10198 3.38159 5.25718 5.42224 6.56749 
Ar 0.335478 2.04707 1.90673 -30.8669 12.381 9.74453 
Ar 4.96459 0.590795 6.29675 -9.98921 13.9395 4.13457 
Ar 4.11592 3.87812 6.79754 -6.29097 11.522 17.0206 
Ar 1.43593 3.4594 6.78575 6.05688 0.477597 -4.59488 
Ar 6.42752 0.853054 4.15788 1.99671 16.7927 12.5779 
Ar 0.0496331 0.919688 1.28985 3.49279 25.7017 21.3771 
Ar 3.23489 3.9525 2.3861 -10.1103 19.3635 -8.21309 
Ar 0.209216 4.60084 2.79707 8.33783 18.6445 6.53859 
Ar 4.00608 2.43816 2.22495 27.6108 -23.738 0.446987 
Ar 6.71342 4.5915 0.299436 20.2778 -9.02083 3.12698 
Ar 2.86898 0.563103 6.30068 29.1782 8.02549 13.3776 
Ar 3.91714 2.19917 6.50511 9.10126 9.85828 -7.01192 
Ar 6.64569 2.34199 3.90395 11.5573 -11.3035 15.3552 
Ar 4.48637 2.78686 5.08325 19.0186 -13.8831 3.84725 
Ar 0.344506 0.642181 5.91913 13.7044 5.73359 5.12706 
Ar 2.89138 1.80012 2.76854 6.23795 5.73912 6.29642 
Ar 1.2876 2.35423 0.208644 22.93 26.6901 3.26137 
Ar 2.30838 1.66374 4.53179 10.3153 26.9231 -12.2357 
Ar 5.76213 1.83201 6.40787 8.645 2.61353 12.1476 
Ar 4.10941 4.60559 1.45729 10.7109 11.8645 4.91223 
Ar 1.27094 6.49234 0.505242 21.4338 13.6418 -1.93487 
Ar 6.03566 6.258 6.79471 -11.6297 11.2424 15.8468 
Ar 1.13007 1.10395 3.1556 32.8229 -8.83924 -15.3835 
Ar 1.45506 3.48199 2.97981 11.7159 -2.86242 15.0673 
