32
comment
Ar 4.60396 4.83518 1.26386 -28.185 -24.2097 12.7375 
Ar 1.59698 5.71782 5.58471 17.7883 -14.9719 -14.9602 
Ar 4.74117 0.332788 5.41765 -22.9641 4.25026 -17.3544 
Ar 0.453615 0.313988 6.77865 6.58886 4.07712 -0.617455 
Ar 6.13504 6.02883 1.60629 -10.2468 -7.41595 6.46401 
Ar 0.325885 5.76532 4.38447 3.43525 -14.9759 26.2704 
Ar 5.48624 0.583762 4.77114 -17.0217 4.95801 30.2537 
Ar 0.541613 0.835908 1.86246 4.48988 6.86394 8.33534 
Ar 5.52238 4.81166 0.76476 -18.151 31.3499 6.39977 
Ar 6.35434 4.08034 6.30562 -4.36769 20.7836 -4.47778 
Ar 5.73808 1.76961 4.97816 -12.5248 8.41973 -19.6113 
Ar 0.582305 2.09287 0.399307 2.89124 11.8308 -0.172998 
Ar 6.53691 3.98216 1.83495 -6.00234 22.1372 9.53028 
Ar 6.76146 3.57829 3.79515 -1.15759 19.1605 20.7896 
Ar 5.72001 1.7428 3.795 -13.3936 9.77418 19.7787 
Ar 6.73417 2.12201 1.58506 -0.702202 11.9583 6.63005 
Ar 4.75547 5.73969 0.886281 30.6866 -15.3396 8.50173 
Ar 2.65741 6.39856 6.48224 20.2982 -9.00142 3.2205 
Ar 3.98692 6.55999 5.8735 20.6786 -2.46962 -10.9434 
Ar 2.01038 0.650437 0.262265 10.0423 5.78147 0.913763 
Ar 3.82931 5.93261 1.78476 21.5319 -11.8767 8.85517 
Ar 1.37206 5.50346 3.54033 4.47484 -16.0131 17.5492 
Ar 3.80247 0.137956 4.0206 20.8048 -0.436515 23.8561 
Ar 1.64357 0.673826 1.52252 6.37044 5.52742 6.23553 
Ar 3.72463 4.00994 6.79689 19.5174 24.8373 -1.26477 
Ar 1.38345 3.79094 5.74306 5.43734 20.1299 -13.9845 
Ar 3.41066 1.25236 5.83696 16.4377 3.33871 -12.8189 
Ar 1.95362 2.21974 0.492559 10.8837 11.9862 4.76888 
Ar 3.81753 3.59552 0.875797 20.4623 17.5798 1.92584 
Ar 1.02712 3.6905 3.53523 0.742416 19.3728 17.7655 
Ar 3.50837 1.27098 3.3698 17.4077 4.1037 16.1084 
Ar 0.936111 1.92711 1.3188 0.538249 10.4277 6.48407 
