32
comment
Ar 6.09671 2.16079 0.955011 -9.22525 24.1923 14.1189 
Ar 0.326738 4.75632 0.212112 31.3092 4.64333 -19.6682 
Ar 5.16455 0.47544 5.15356 -6.53383 -6.33679 -8.34859 
Ar 4.78572 1.02306 4.93072 -0.787144 -0.704977 4.76347 
Ar 4.82873 2.30417 1.11665 -17.0988 0.530998 18.0025 
Ar 6.71168 4.11078 6.56311 19.0883 14.4903 17.2582 
Ar 1.22911 3.51416 2.6335 -4.43268 15.9146 25.9144 
Ar 0.296519 2.83822 5.56738 -5.71431 18.6611 5.41266 
Ar 1.88064 1.19669 2.45432 -12.9665 5.03721 9.28695 
Ar 5.60206 2.22138 0.532411 -0.73106 -3.0028 17.3256 
Ar 1.18284 0.465243 4.78175 -13.3348 -8.27089 23.817 
Ar 1.39934 2.10029 1.08151 23.1134 11.1159 6.72812 
Ar 4.44009 0.821676 5.79087 5.68701 11.3949 23.823 
Ar 6.6979 6.65344 4.91582 -0.600762 3.31714 11.3903 
Ar 5.31078 6.66394 5.65308 -9.17867 23.1549 -3.97892 
Ar 2.145 3.58689 5.04659 3.29529 26.5182 5.19005 
Ar 3.46481 4.475 2.40988 24.45 -16.2246 -2.61828 
Ar 5.17169 6.70622 0.030475 10.2344 -8.84662 13.8692 
Ar 2.89441 5.97611 2.38594 29.7244 -5.46203 24.6029 
Ar 1.99475 1.97685 4.7647 10.6066 25.6686 14.1217 
Ar 3.07494 1.21444 3.07372 16.586 -16.7623 19.203 
Ar 3.42255 3.66478 4.91573 5.56356 -11.0999 -4.21313 
Ar 1.80077 0.142365 0.830347 -10.2747 -12.9865 -10.215 
Ar 5.45922 4.62189 0.507566 6.81182 20.405 34.5997 
Ar 4.64957 1.51765 1.86158 20.3007 26.5971 3.60417 
Ar 3.60226 0.230391 5.25682 17.2904 24.6722 -12.6385 
Ar 3.89838 4.23939 3.07896 22.8169 8.0705 23.3307 
Ar 5.51983 4.20902 4.4903 19.7854 14.3119 6.87994 
Ar 4.21168 6.47348 1.21305 18.0995 12.8033 8.99092 
Ar 3.09169 4.00343 2.11911 0.450268 12.5412 1.26617 
Ar 3.30166 3.7274 0.605529 35.0495 -6.47768 -21.1497 
Ar 6.78716 5.54973 4.37629 11.2173 5.71438 17.5171 
