32
comment
Ar 3.67017 2.71209 5.06588 -21.0588 17.5665 20.8981 
Ar 6.42724 3.63885 4.92865 31.3464 4.62248 -19.6138 
Ar 1.71269 0.916328 1.43922 -15.8331 -3.84853 -14.0696 
Ar 3.51552 1.63784 2.07781 8.6842 1.66722 14.0449 
Ar 0.666635 2.14621 5.54351 -10.3668 1.52041 10.129 
Ar 6.29526 3.45208 1.52622 -3.97612 -3.55637 22.9147 
Ar 2.33243 6.50949 3.2335 -4.49285 15.9528 26.4683 
Ar 1.40502 5.28287 4.46686 -3.30736 17.558 3.42789 
Ar 0.236543 4.88894 2.52943 -26.5772 15.7666 -3.258 
Ar 4.81258 5.74407 2.54274 0.846104 24.6513 14.2574 
Ar 2.64024 6.65774 4.16187 -4.03738 11.7991 21.8292 
Ar 2.69682 6.38342 6.33704 19.7679 9.92668 4.3816 
Ar 2.00152 4.22039 1.36911 10.4279 14.4395 18.1199 
Ar 0.298472 5.07731 0.490886 -2.1705 10.0019 26.9345 
Ar 0.831541 1.77993 0.409194 -9.91128 19.3416 -8.16126 
Ar 1.5852 4.01628 3.60822 1.05871 26.6079 7.05102 
Ar 3.79427 3.49714 2.29461 27.167 -24.4921 0.565816 
Ar 2.70986 2.0503 3.47275 11.1582 -11.3781 14.5211 
Ar 2.90358 1.16454 3.53883 24.8908 0.64259 23.1533 
Ar 6.13055 4.7388 4.74975 9.60032 14.6747 -9.05233 
Ar 4.77146 5.52535 0.0538206 24.0226 -17.4109 10.6423 
Ar 2.06533 6.31908 5.92947 5.90313 -10.8939 -4.04034 
Ar 2.67997 1.70978 0.288604 7.20255 3.65 5.05574 
Ar 3.58677 2.52625 5.5395 -5.22378 -1.95773 27.3228 
Ar 6.5668 1.92073 0.994076 20.401 26.4437 3.23981 
Ar 6.23873 1.04035 1.50637 17.5326 25.448 -12.9135 
Ar 1.19175 2.74548 1.61072 10.075 5.17114 4.18663 
Ar 0.500628 0.782031 2.75106 21.5741 14.2552 7.47333 
Ar 6.41629 2.94376 0.0529299 21.4424 13.5534 -1.78097 
Ar 3.8389 1.50337 4.84943 -10.8051 -1.6618 21.5952 
Ar 1.73653 5.24657 5.72153 34.8582 -5.9971 -21.2813 
Ar 4.07893 4.20145 0.173963 11.2737 5.53946 17.5363 
