32
comment
Ar 6.75397 0.891154 0.399974 -15.8249 29.3604 12.8794 
Ar 5.57126 4.52409 1.19556 31.3113 4.64621 -19.6696 
Ar 5.75023 0.492476 5.72597 -12.5201 0.502271 -11.9757 
Ar 4.64677 1.44166 4.41916 3.20645 -9.762 11.3992 
Ar 5.46235 2.28608 0.513155 -10.688 0.33699 9.06678 
Ar 5.81736 3.34382 5.71279 11.1136 17.8581 16.686 
Ar 1.45178 2.71861 1.3374 -4.49727 15.8924 25.918 
Ar 0.582805 1.90513 5.29641 -5.74432 18.6622 5.43042 
Ar 2.45175 0.856759 1.94841 -10.895 8.0483 6.55092 
Ar 5.51936 2.41687 6.09772 1.13273 -4.11393 26.8178 
Ar 1.82958 0.726466 3.49222 -14.6149 0.759944 33.6035 
Ar 0.24413 1.54429 0.745608 23.0943 11.1188 6.71052 
Ar 3.97994 0.146471 4.81415 10.4203 14.3757 18.1471 
Ar 6.72547 6.48433 4.34568 -0.519025 3.42795 11.4107 
Ar 5.79873 5.63063 5.95102 -9.75106 20.6894 -5.96326 
Ar 1.98155 2.26073 4.78683 3.27369 26.5341 5.19836 
Ar 2.1408 5.6482 2.40868 27.1549 -24.5582 0.612536 
Ar 4.65903 0.338821 6.14524 10.2698 -8.8689 13.966 
Ar 1.40903 6.24684 1.15538 29.6816 -5.35779 24.6108 
Ar 1.49758 0.84158 4.11841 10.2419 16.5873 8.31353 
Ar 2.33813 2.16078 2.17207 12.6837 -21.8165 16.6893 
Ar 3.14261 4.21916 5.1262 5.60666 -11.0783 -4.20523 
Ar 2.31238 0.78782 1.32857 -9.89168 -11.8226 -5.51627 
Ar 5.09417 3.61037 5.58891 9.54983 19.5332 34.6323 
Ar 3.63445 0.188353 1.68126 20.3227 26.572 3.6067 
Ar 2.74006 5.80595 5.88871 17.2232 24.7074 -12.6288 
Ar 3.10032 3.7277 2.39993 10.0903 5.35609 4.30247 
Ar 4.53034 3.49357 4.14639 19.7965 14.3069 6.87075 
Ar 3.30644 5.83275 0.763784 18.1168 12.8288 8.97056 
Ar 2.83121 3.03927 1.80769 8.12251 23.4579 10.6702 
Ar 1.54957 4.05111 1.66536 35.0228 -6.44086 -21.2359 
Ar 6.22604 5.26574 3.50175 11.2212 5.65726 17.4715 
