32
comment
Ar 0.426351 1.6413 4.50152 10.2653 36.2679 17.9985 
Ar 6.28132 5.28576 5.03347 29.6826 0.31003 -7.41831 
Ar 4.71323 5.43895 1.75876 -2.72688 -7.99881 -19.2806 
Ar 6.37367 3.56425 5.86557 11.2179 15.3922 4.63685 
Ar 1.8332 2.37214 4.71708 -14.2343 -3.51574 24.1862 
Ar 2.23369 0.231826 2.9934 4.07964 21.924 16.1912 
Ar 1.27226 5.23766 0.421478 6.16551 2.18852 21.9508 
Ar 0.595668 5.87857 6.79414 15.2478 15.6209 5.77861 
Ar 6.22936 2.1548 4.21671 -13.0101 5.00398 9.22756 
Ar 5.53436 1.21196 4.73012 3.59501 -5.48634 30.351 
Ar 5.46736 5.69822 2.48988 -12.9245 -8.22193 23.8624 
Ar 5.35511 4.6353 1.51575 19.8203 15.0249 -0.72591 
Ar 4.9363 2.89695 2.47053 0.711598 10.1053 13.3312 
Ar 0.405159 0.497217 6.61889 3.71074 3.50107 8.24559 
Ar 3.98762 3.9682 1.0504 -7.13722 20.6625 13.8053 
Ar 2.53092 2.086 4.14103 2.61337 27.3859 -10.1864 
Ar 0.368113 2.29837 2.23585 10.9876 -7.9034 -3.88312 
Ar 0.334198 4.89196 2.82185 10.8 -10.7469 16.01 
Ar 1.65529 3.54849 0.0734078 30.6013 -18.8795 20.0222 
Ar 4.00159 0.0181443 0.654495 10.4748 25.3577 14.3191 
Ar 6.51909 5.19614 0.177028 22.1251 -10.3021 24.4546 
Ar 4.46593 1.55784 4.12574 5.53543 -11.0943 -4.12756 
Ar 6.01681 3.82506 0.207257 -20.6778 -22.7757 8.76439 
Ar 6.75403 1.70085 0.258495 7.18123 20.9713 34.2385 
Ar 3.46136 4.9526 3.5725 34.6954 15.4629 10.1393 
Ar 4.55932 4.08219 1.77098 0.468382 22.8518 -18.6169 
Ar 1.80178 6.01123 1.7993 27.0494 12.7125 31.2197 
Ar 1.42022 1.54951 5.8408 9.494 28.9797 7.08909 
Ar 0.902006 1.95489 3.03246 21.8453 5.26885 15.97 
Ar 2.87606 5.15404 1.99217 6.11712 -0.66599 -0.0430049 
Ar 3.0163 2.71841 3.36036 33.4242 2.50863 -26.1308 
Ar 2.33437 0.161194 0.520716 13.4587 9.06924 13.5563 
