32
comment
Ar 4.84373 1.53152 5.57492 -33.5034 -4.61963 27.5062 
Ar 6.24102 2.88562 2.42458 24.0159 -12.6227 -14.8077 
Ar 6.1545 1.73766 3.53768 -19.8377 -3.4946 -7.97701 
Ar 1.84299 1.17518 6.63787 6.58637 4.12967 -0.778853 
Ar 3.41096 0.985467 3.31865 -15.034 14.0178 7.28026 
Ar 0.373449 4.24414 3.0477 -4.24646 -0.0987559 21.8086 
Ar 3.39093 2.88822 3.8598 -4.77037 15.5286 26.9313 
Ar 1.56596 2.15635 3.44729 5.28037 5.43326 6.56913 
Ar 0.0268118 2.17079 2.00414 -30.8653 12.374 9.74344 
Ar 4.86471 0.730339 6.33803 -9.98883 13.9568 4.13225 
Ar 4.05301 3.99333 0.157697 -6.29086 11.5226 17.0208 
Ar 1.4965 3.46414 6.73979 6.03939 1.13574 -4.3524 
Ar 6.44747 1.02102 4.28367 2.002 16.794 12.5927 
Ar 0.0845663 1.17677 1.50366 3.4943 25.7065 21.3805 
Ar 3.13383 4.14612 2.30394 -10.1016 19.3635 -8.21905 
Ar 0.28483 4.80418 2.85058 7.14216 22.988 4.41576 
Ar 4.28211 2.20075 2.22948 27.5966 -23.7422 0.457175 
Ar 0.106188 4.50129 0.33071 20.2777 -9.02105 3.12779 
Ar 3.16068 0.643434 6.43448 29.1666 8.03794 13.3804 
Ar 4.00821 2.29771 6.43491 9.11537 9.84944 -7.03075 
Ar 6.76888 2.23833 4.0632 12.5004 -10.223 16.0846 
Ar 4.67654 2.64793 5.12178 19.0158 -13.9058 3.8603 
Ar 0.481573 0.699529 5.97041 13.7106 5.73641 5.12863 
Ar 2.95373 1.85758 2.83153 6.23105 5.75904 6.30196 
Ar 1.5169 2.62113 0.241268 22.929 26.69 3.26297 
Ar 2.41151 1.93301 4.40933 10.3121 26.931 -12.2614 
Ar 5.84841 1.85806 6.52925 8.61548 2.59932 12.1293 
Ar 4.21644 4.72417 1.50641 10.6984 11.8528 4.91088 
Ar 1.48528 6.62875 0.485897 21.433 13.6402 -1.93409 
Ar 5.91933 6.37039 0.143166 -11.6335 11.238 15.8456 
Ar 1.45834 1.01566 3.00178 32.8309 -8.81547 -15.378 
Ar 1.57215 3.45335 3.13051 11.7033 -2.86936 15.0715 
