32
comment
Ar 6.31356 5.18778 2.88081 10.2739 36.2693 18.0233 
Ar 3.49831 5.17974 5.62282 32.255 2.00981 -5.39609 
Ar 4.89729 6.13833 3.47627 -1.97374 -7.72716 -19.0649 
Ar 5.36274 2.18114 5.44449 11.2598 15.3592 4.68336 
Ar 3.01732 2.58709 2.7271 -14.8913 -0.78997 22.7551 
Ar 1.57751 5.32177 1.51727 16.518 11.8678 17.6766 
Ar 0.847539 5.02794 5.19769 1.85006 5.80501 23.7716 
Ar 6.55498 4.69124 6.12664 -2.3786 15.9483 8.78866 
Ar 0.585707 1.70114 3.3827 -12.9459 5.0478 9.28194 
Ar 5.20884 1.71278 1.99765 2.82325 -5.06288 28.4532 
Ar 6.66127 6.44647 0.351193 -13.2894 -8.3397 23.7648 
Ar 3.60135 3.30785 1.5599 19.4499 14.748 -0.468752 
Ar 4.90046 1.92533 1.25113 0.248551 11.1088 13.668 
Ar 0.0696986 0.184579 5.8785 3.77032 3.45828 8.18451 
Ar 4.60916 2.10624 6.59332 -6.93098 20.6754 14.0643 
Ar 2.43096 6.29333 4.98955 0.954906 29.1024 -9.35953 
Ar 6.00931 3.28202 2.34602 13.4621 -11.6455 -0.679764 
Ar 6.19113 5.8176 1.42469 10.1854 -8.91539 13.9715 
Ar 5.81844 5.09042 4.85061 28.5209 -15.5031 25.037 
Ar 3.05814 4.5456 6.17579 10.4739 25.3587 14.3327 
Ar 4.73367 6.35181 4.99856 16.5698 -16.6855 19.3061 
Ar 3.97296 2.55462 4.4963 5.46235 -11.0824 -4.10369 
Ar 0.765675 5.634 6.66786 -11.8388 -16.0431 -4.13093 
Ar 6.13708 6.66162 3.96635 6.70785 20.3516 34.5897 
Ar 0.339181 3.56152 2.65694 34.6821 15.4542 10.1825 
Ar 4.37908 2.28685 3.55761 2.82019 18.4206 -20.208 
Ar 6.27877 4.95973 5.82613 21.9143 7.30524 28.629 
Ar 0.566525 5.75005 5.20117 10.9372 25.6743 8.1813 
Ar 6.02332 0.945278 2.10899 18.097 12.8756 8.93138 
Ar 2.55263 4.99779 2.00767 -5.7338 9.8286 -1.25689 
Ar 6.80719 3.0798 5.30075 35.0538 -6.45008 -21.1562 
Ar 1.12043 6.15069 6.10906 13.3623 9.09291 13.4668 
