32
comment
Ar 4.16452 1.46164 6.10614 -36.7714 -0.0738373 23.9432 
Ar 6.7177 2.67825 2.14583 26.0105 -6.70079 -13.2977 
Ar 5.75376 1.66509 3.37471 -20.0418 -3.6219 -8.14237 
Ar 1.97473 1.2578 6.62213 6.58061 4.12031 -0.7996 
Ar 3.11133 1.26222 3.46665 -14.9095 13.0108 7.98098 
Ar 0.296981 4.18206 3.50581 -3.82307 -3.44121 23.0627 
Ar 3.29523 3.19839 4.39835 -4.74224 15.5524 26.9429 
Ar 1.67204 2.26503 3.57867 5.32364 5.4403 6.5682 
Ar 6.21327 2.37927 2.18928 -33.8606 7.07586 8.99101 
Ar 4.67668 0.989636 6.43498 -6.32097 9.93495 6.96883 
Ar 3.92722 4.22389 0.49833 -6.2866 11.5352 17.0447 
Ar 1.59893 3.55647 6.69411 2.42998 9.34288 1.54136 
Ar 6.48762 1.35666 4.53535 2.66632 15.9183 12.7643 
Ar 0.154486 1.69091 1.93129 3.49769 25.7071 21.383 
Ar 2.93195 4.53343 2.13946 -10.0873 19.3653 -8.22741 
Ar 0.423007 5.32318 2.89692 6.91279 26.1167 2.23637 
Ar 4.83394 1.72587 2.23877 27.5984 -23.7415 0.47369 
Ar 0.51176 4.32086 0.393276 20.2804 -9.02292 3.12868 
Ar 3.74418 0.804474 6.70202 28.9682 7.91976 13.5158 
Ar 4.19056 2.49647 6.29459 9.12302 10.0634 -6.99514 
Ar 0.208766 2.03374 4.38477 12.5008 -10.2284 16.0753 
Ar 5.05657 2.36946 5.19944 18.9861 -13.935 3.90431 
Ar 0.755936 0.814332 6.07302 13.7309 5.74472 5.13351 
Ar 3.0751 1.98556 2.94748 5.93267 7.53876 4.94416 
Ar 1.97546 3.15495 0.306544 22.927 26.6931 3.26473 
Ar 2.61794 2.47179 4.16353 10.2773 26.8819 -12.3359 
Ar 6.0203 1.90989 6.77162 8.57955 2.5872 12.1099 
Ar 4.43012 4.96098 1.60442 10.6712 11.8298 4.89011 
Ar 1.91393 0.0915318 0.447228 21.4327 13.6392 -1.93277 
Ar 5.68664 6.59513 0.46009 -11.6353 11.2358 15.8469 
Ar 2.11516 0.83979 2.69441 32.8576 -8.77412 -15.3553 
Ar 1.80613 3.39558 3.43211 11.7021 -2.9102 15.0892 
