32
comment
Ar 4.12289 2.37982 4.56001 -26.0762 15.8913 29.6221 
Ar 5.8003 3.54553 5.32114 31.3651 4.84511 -19.691 
Ar 2.02933 0.9935 1.72051 -15.8375 -3.87112 -14.0657 
Ar 3.34166 1.60451 1.79707 8.70511 1.66748 14.0314 
Ar 0.873995 2.11579 5.34084 -10.3691 1.52112 10.1361 
Ar 6.37467 3.52303 1.06768 -3.96084 -3.53417 22.9395 
Ar 2.42108 6.1896 2.70044 -4.41766 16.0113 26.6982 
Ar 1.47129 4.93165 4.39852 -3.31512 17.5626 3.41526 
Ar 0.768167 4.57356 2.59461 -26.5867 15.7737 -3.26168 
Ar 4.79563 5.25102 2.25759 0.848821 24.6546 14.2575 
Ar 2.73856 6.42345 3.76223 -6.17445 11.5605 17.3351 
Ar 2.41366 6.17777 6.3223 8.80759 12.6531 -2.78247 
Ar 1.79289 3.9315 1.00676 10.4342 14.4506 18.1131 
Ar 0.341905 4.87726 6.76223 -2.14605 10.0224 26.9089 
Ar 1.03 1.39312 0.572685 -9.93916 19.3384 -8.19054 
Ar 1.564 3.48424 3.46723 1.05689 26.6022 7.05144 
Ar 3.25089 3.98695 2.28329 27.1733 -24.4892 0.566979 
Ar 2.48417 2.29109 3.18144 11.2863 -12.1144 14.5676 
Ar 2.40814 1.13404 3.07558 24.7852 1.84515 23.2254 
Ar 5.93827 4.44622 4.93061 9.78314 13.8287 -8.86238 
Ar 4.29091 5.8734 6.65098 24.0314 -17.3979 10.6433 
Ar 1.83685 6.53844 5.94137 16.0342 -12.1008 2.03075 
Ar 2.53579 1.63674 0.18763 7.21658 3.65374 5.04067 
Ar 3.66992 2.53869 5.06976 -2.46965 -0.137797 20.7804 
Ar 6.15844 1.39251 0.928805 20.4357 26.4109 3.26085 
Ar 5.88779 0.531101 1.76493 17.5568 25.4523 -12.9322 
Ar 0.990302 2.64198 1.52684 10.0685 5.18114 4.20225 
Ar 0.0692057 0.496949 2.60155 21.569 14.2531 7.47709 
Ar 5.98742 2.67249 0.0890061 21.44 13.5711 -1.82621 
Ar 4.05475 1.53684 4.41762 -10.7833 -1.66467 21.5896 
Ar 1.03951 5.36688 6.1468 34.8433 -6.02887 -21.2442 
Ar 3.85353 4.09081 6.63321 11.2683 5.52821 17.5402 
