32
comment
Ar 0.834989 6.11607 6.59466 -20.5176 30.5356 7.24793 
Ar 4.00561 4.29177 2.17919 31.317 4.6475 -19.6774 
Ar 6.37383 0.468055 6.32345 -12.4418 0.463186 -11.9037 
Ar 4.48627 1.93026 3.84994 2.98342 -6.10491 11.2526 
Ar 5.99699 2.26784 0.06024 -10.7046 0.412232 9.04382 
Ar 5.73148 2.94823 4.72876 -3.93842 -3.38574 22.8132 
Ar 1.67963 1.92425 0.0447585 -4.60891 15.886 25.7871 
Ar 0.872184 0.971793 5.02339 -5.7997 18.6807 5.4848 
Ar 3.31767 0.282422 2.06867 -26.4941 15.6255 -3.23823 
Ar 5.2651 2.13138 4.85464 10.5149 17.4433 23.7553 
Ar 2.4962 0.688592 1.76118 -4.00996 -2.08658 32.8876 
Ar 5.90523 1.01345 0.421383 22.9061 10.3151 6.37371 
Ar 3.45951 6.23801 3.9074 10.4068 14.377 18.1306 
Ar 6.75003 6.31159 3.77493 -0.493873 3.45878 11.4277 
Ar 6.28609 4.59559 6.24886 -9.74298 20.7032 -5.95287 
Ar 1.81561 0.932788 4.52695 3.37595 26.5795 5.19353 
Ar 0.783583 0.0649679 2.37759 27.1239 -24.5139 0.615445 
Ar 4.14697 0.782468 5.4454 10.2271 -8.87939 14.009 
Ar 6.75799 6.57577 6.76555 25.2951 -9.17742 22.605 
Ar 0.821946 0.0321428 3.96016 13.9259 16.2022 2.60787 
Ar 1.31442 3.08025 1.54691 23.9713 -17.4829 10.6548 
Ar 2.86192 4.77364 5.33714 5.63221 -11.0991 -4.24005 
Ar 2.68398 1.47011 1.04288 -5.97644 -10.8274 10.0833 
Ar 4.43737 2.70694 3.8266 10.7756 17.3087 34.5274 
Ar 2.61536 5.66644 1.50027 20.4126 26.7144 3.64509 
Ar 1.87997 4.57004 6.51805 17.2288 24.7831 -12.6059 
Ar 2.59911 3.46936 2.19351 10.0536 5.21157 4.15691 
Ar 3.52519 2.77829 3.79617 21.1256 14.2916 7.43653 
Ar 2.40064 5.19156 0.316557 18.1102 12.8075 8.91401 
Ar 2.74234 1.99598 1.05908 -2.917 15.9602 17.8835 
Ar 6.60909 4.37233 2.72703 35.0072 -6.4234 -21.2321 
Ar 5.66487 4.98313 2.62837 11.2434 5.6603 17.4717 
