32
comment
Ar 6.01479 6.03009 0.635523 -28.1266 -23.7859 12.6616 
Ar 0.708317 6.46616 6.33334 17.1891 -15.4687 -14.4255 
Ar 5.88666 0.120296 6.28696 -22.9048 4.219 -17.3796 
Ar 0.12577 0.111416 6.80831 6.50696 4.01172 -0.554456 
Ar 6.64571 6.39789 1.28279 -10.1853 -7.3727 6.48056 
Ar 0.156386 6.51353 3.06965 3.37166 -14.9576 26.3111 
Ar 6.34019 0.339652 3.25602 -17.0727 4.93348 30.2698 
Ar 0.317836 0.495562 1.44404 4.56111 6.7418 8.37836 
Ar 6.43198 3.24441 0.445293 -18.2131 31.3475 6.38108 
Ar 6.57264 3.04007 6.5317 -4.46413 20.9849 -4.87694 
Ar 6.36331 1.34641 5.95717 -12.4752 8.49694 -19.5678 
Ar 0.39228 1.51705 0.316316 5.14343 11.1729 3.76579 
Ar 0.0260011 2.87493 1.35809 -5.96236 22.1661 9.53639 
Ar 0.0125043 2.6193 2.75651 -1.02089 19.2254 20.7265 
Ar 6.38937 1.25317 2.80802 -13.3762 9.80666 19.7266 
Ar 6.77945 1.52463 1.25566 -1.29653 11.8955 6.42686 
Ar 3.22013 6.51688 0.457378 30.6208 -15.5528 8.7493 
Ar 1.65397 0.0564682 6.34567 18.6249 -9.20996 -2.3169 
Ar 2.95031 6.68204 6.42079 20.7587 -2.38117 -10.9179 
Ar 1.50711 0.363618 0.218815 10.0651 5.67038 0.97929 
Ar 2.75429 6.52534 1.34093 21.5127 -11.8367 8.85187 
Ar 1.1465 6.30419 2.66431 4.54381 -16.0097 17.5009 
Ar 2.76234 0.159788 2.82779 20.7452 -0.0392861 23.7341 
Ar 1.3254 0.399977 1.20798 6.25293 5.48428 6.25372 
Ar 2.73392 2.8199 6.79137 20.2869 22.5071 1.27518 
Ar 1.11171 2.78409 6.44183 5.42852 20.1668 -13.954 
Ar 2.58827 1.08519 6.4771 16.4868 3.34613 -12.7748 
Ar 1.40821 1.6183 0.253849 10.49 12.0136 5.05006 
Ar 2.79864 2.69352 0.846841 20.3394 18.7362 -1.75259 
Ar 0.990981 2.72208 2.64682 0.599964 19.3668 17.7962 
Ar 2.63836 1.06492 2.56509 17.411 4.06626 16.1148 
Ar 0.956234 1.37933 1.08567 -1.74077 11.6615 2.15315 
