32
comment
Ar 2.21958 1.67762 0.484029 -37.2581 5.3473 24.5193 
Ar 1.40471 2.81867 1.27449 30.9498 6.02914 -19.6333 
Ar 4.7515 1.48716 2.96983 -20.046 -3.49594 -8.08317 
Ar 2.19602 1.4034 6.66549 1.29324 -0.872699 9.56361 
Ar 2.3548 1.83371 3.92595 -14.0208 9.36889 9.45895 
Ar 0.106336 4.01039 4.65845 -3.80752 -3.43717 23.0492 
Ar 3.06322 3.98162 5.74869 -4.63291 15.669 26.9902 
Ar 1.90581 2.54402 3.89968 1.14877 8.35487 5.70046 
Ar 4.59952 2.70509 2.65896 -32.3164 6.44283 9.42121 
Ar 4.67554 1.79804 0.261615 0.867372 24.6829 14.254 
Ar 3.61267 4.80144 1.35198 -6.29708 11.5747 17.1189 
Ar 1.56737 4.16057 0.151616 4.86865 13.0191 -1.60753 
Ar 0.330871 1.90368 5.28287 13.2557 12.5208 17.4586 
Ar 0.237887 2.63006 3.14948 0.908298 16.5439 25.7266 
Ar 2.42868 5.50115 1.72716 -10.0334 19.3308 -8.26958 
Ar 0.768659 6.62844 3.00902 6.91455 26.1016 2.2426 
Ar 6.21493 0.537058 2.25047 27.6095 -23.7978 0.0942193 
Ar 1.32746 3.90221 0.718547 9.1199 -9.6758 15.4996 
Ar 5.17323 0.943552 0.70175 29.3924 -0.283107 17.2578 
Ar 4.64749 2.99757 5.94364 9.14141 9.99306 -7.03872 
Ar 0.919159 1.49394 5.14757 21.8227 -14.6841 12.5343 
Ar 6.00492 1.67255 5.39525 18.9281 -13.9352 3.90677 
Ar 1.44308 1.10202 6.32875 12.7924 5.39346 4.64013 
Ar 3.39189 2.44607 3.11635 6.39442 9.43837 3.23848 
Ar 3.12516 4.48924 0.471681 23.0047 26.6739 3.30731 
Ar 3.3191 3.77859 3.54575 18.63 25.5093 -12.624 
Ar 6.4485 2.03905 0.567141 8.54363 2.57517 12.116 
Ar 4.96193 5.55105 1.84743 10.6085 11.7738 4.84149 
Ar 2.98587 0.772789 0.350896 21.4486 13.5688 -1.90811 
Ar 5.1071 0.318466 1.26869 -11.5294 7.15542 18.6055 
Ar 3.75891 0.402703 1.92798 32.8863 -8.72634 -15.3286 
Ar 2.29848 3.32982 4.18875 8.41309 1.88337 15.719 
