32
comment
Ar 5.16749 5.31446 1.01182 -28.2348 -23.8455 12.5466 
Ar 1.24135 6.0173 5.88399 17.7678 -14.9776 -14.9724 
Ar 5.19926 0.247518 5.76558 -22.9117 4.25528 -17.384 
Ar 0.322038 0.232598 6.79086 6.56669 4.05987 -0.601218 
Ar 6.33976 6.17695 1.47692 -10.2278 -7.39685 6.46918 
Ar 0.257549 6.06474 3.85886 3.39709 -14.9661 26.292 
Ar 5.82786 0.485567 4.16511 -17.0764 4.88695 30.2949 
Ar 0.452227 0.699037 1.69542 4.45783 6.82084 8.36655 
Ar 5.88613 4.18481 0.636511 -18.187 31.3427 6.39971 
Ar 6.44155 3.66471 6.39501 -4.35136 20.7795 -4.45981 
Ar 5.98841 1.60074 5.36999 -12.5083 8.46234 -19.5771 
Ar 0.521588 1.85761 0.395006 3.39686 11.6252 1.00834 
Ar 6.65684 3.53941 1.64431 -5.99056 22.1408 9.53257 
Ar 6.78491 3.19503 3.3794 -1.21463 19.1692 20.7823 
Ar 5.98784 1.54719 3.39988 -13.3883 9.78638 19.7413 
Ar 6.74919 1.88286 1.45253 -0.823587 11.9553 6.61567 
Ar 4.14146 6.05008 0.715039 30.7376 -15.5704 8.56735 
Ar 2.25138 6.5781 6.41733 20.2967 -8.96126 3.26243 
Ar 3.57266 6.60944 6.09263 20.7224 -2.45124 -10.9534 
Ar 1.80933 0.535066 0.244502 10.0627 5.75159 0.861707 
Ar 3.39909 6.1699 1.60731 21.4937 -11.856 8.88499 
Ar 1.28229 5.82374 3.18959 4.50211 -16.0141 17.5245 
Ar 3.38635 0.147094 3.54335 20.809 -0.476062 23.8708 
Ar 1.51592 0.563655 1.39735 6.38277 5.48657 6.28688 
Ar 3.33321 3.51791 0.00667003 19.6912 24.1426 0.310225 
Ar 1.27471 3.38835 6.02271 5.43616 20.1316 -13.9792 
Ar 3.08193 1.18552 6.09324 16.44 3.34329 -12.8079 
Ar 1.73522 1.97965 0.39746 10.9542 12.0267 4.74027 
Ar 3.40877 3.24238 0.841486 20.4334 17.808 1.3968 
Ar 1.01228 3.30309 3.17993 0.741683 19.3697 17.7649 
Ar 3.16032 1.18857 3.04784 17.397 4.13571 16.0884 
Ar 0.928654 1.7164 1.19623 0.0360646 10.7695 5.43784 
