32
comment
Ar 0.116442 0.566591 0.254794 -17.2694 32.6417 14.6085 
Ar 5.25814 4.47762 1.39226 31.312 4.64661 -19.6702 
Ar 5.87533 0.487464 5.84573 -12.4997 0.498713 -11.9738 
Ar 4.61469 1.53924 4.3052 3.20883 -9.75753 11.3936 
Ar 5.56922 2.2827 0.422491 -10.6836 0.342236 9.06536 
Ar 5.74064 3.15299 5.55162 5.73769 16.081 17.0989 
Ar 1.49687 2.55972 1.07832 -4.52247 15.889 25.8952 
Ar 0.640305 1.71851 5.24207 -5.75791 18.6621 5.43848 
Ar 2.56736 0.779613 1.91232 -12.327 8.29475 0.953988 
Ar 5.50786 2.45766 5.82954 1.26099 -3.78781 26.7921 
Ar 1.99149 0.713425 3.12646 -16.196 1.30117 36.5886 
Ar 0.0132066 1.43311 0.678512 23.0914 11.117 6.70909 
Ar 3.87579 0.00277215 4.63272 10.4115 14.3655 18.1402 
Ar 6.73062 6.44999 4.23156 -0.511011 3.43817 11.4126 
Ar 5.89623 5.42368 6.01063 -9.7495 20.6969 -5.95988 
Ar 1.94876 1.99534 4.73484 3.28604 26.5438 5.1999 
Ar 1.86924 5.89377 2.40251 27.1558 -24.5534 0.620598 
Ar 4.55639 0.427527 6.00548 10.2554 -8.87072 13.9883 
Ar 1.11227 6.30036 0.90932 29.6736 -5.34903 24.6048 
Ar 1.37943 0.681205 4.06499 13.9498 16.2498 2.62543 
Ar 2.21113 2.37868 2.00516 15.2289 -19.7663 15.2215 
Ar 3.08656 4.32994 5.16825 5.60528 -11.0807 -4.20636 
Ar 2.40473 0.902795 1.35438 -9.01171 -11.7225 0.231872 
Ar 4.96438 3.42759 5.23669 13.1316 18.2687 35.3106 
Ar 3.43109 6.7327 1.64519 20.3506 26.5815 3.60978 
Ar 2.56785 5.55885 6.01496 17.2188 24.712 -12.6192 
Ar 3.00027 3.67638 2.35884 10.008 5.13425 4.11009 
Ar 4.33238 3.3505 4.07773 19.7955 14.3064 6.86169 
Ar 3.12527 5.70441 0.674125 18.1187 12.8364 8.96276 
Ar 2.74913 2.80263 1.69894 7.8812 23.1357 11.2547 
Ar 1.19939 4.11541 1.87772 35.0144 -6.42602 -21.2342 
Ar 6.11384 5.2092 3.32706 11.22 5.65293 17.4677 
