32
comment
Ar 6.41626 5.55049 3.06102 10.2658 36.2702 18.0184 
Ar 3.82223 5.20186 5.5671 32.4084 2.2232 -5.58707 
Ar 4.87764 6.06107 3.2857 -1.96018 -7.72823 -19.0562 
Ar 5.47529 2.33475 5.49138 11.2486 15.3615 4.69038 
Ar 2.86847 2.57921 2.95463 -14.8801 -0.78731 22.7538 
Ar 1.74272 5.44044 1.69406 15.7269 12.2297 17.361 
Ar 0.879382 5.05182 5.43532 3.19958 2.3244 23.7884 
Ar 6.54412 4.83808 6.22867 -0.86541 13.7375 10.6671 
Ar 0.456249 1.75163 3.47552 -12.9456 5.04979 9.28206 
Ar 5.24472 1.6569 2.30071 3.60218 -5.60078 30.3492 
Ar 6.52833 6.36302 0.588931 -13.2958 -8.3511 23.7829 
Ar 3.79584 3.45531 1.55524 19.4503 14.7447 -0.464789 
Ar 4.90297 2.03641 1.38786 0.236252 11.1263 13.6356 
Ar 0.107402 0.219162 5.96035 3.77036 3.45843 8.18437 
Ar 4.5399 2.31301 6.73386 -6.92196 20.6765 14.0441 
Ar 2.44049 6.58433 4.89598 0.950935 29.0981 -9.35489 
Ar 6.1438 3.16556 2.33925 13.4412 -11.647 -0.675397 
Ar 6.29286 5.72823 1.56475 10.1745 -8.93269 14.0035 
Ar 6.10355 4.93544 5.10088 28.505 -15.4967 25.0322 
Ar 3.16293 4.79924 6.31906 10.4674 25.3574 14.3398 
Ar 4.89937 6.18491 5.19161 16.5688 -16.6975 19.3035 
Ar 4.02745 2.44389 4.45558 5.45345 -11.0733 -4.08009 
Ar 0.639175 5.4617 6.63916 -12.662 -17.2507 -2.87887 
Ar 6.20411 0.0550422 4.3122 6.7016 20.3428 34.5869 
Ar 0.686005 3.71605 2.75876 34.6829 15.4532 10.1832 
Ar 4.40794 2.47076 3.35381 2.8819 18.3887 -20.3778 
Ar 6.49348 5.03976 6.1277 21.2146 8.96552 29.6792 
Ar 0.661118 6.03977 5.27202 9.4442 29.0343 7.0907 
Ar 6.20444 1.0739 2.19826 18.1079 12.8656 8.92831 
Ar 2.49688 5.0952 1.99572 -4.78011 9.37667 -0.877516 
Ar 0.347673 3.0153 5.08919 35.0486 -6.44976 -21.1561 
Ar 1.25579 6.24268 6.24505 13.5401 9.2069 13.5767 
