32
comment
Ar 0.493962 0.494814 6.73022 -4.94874 -5.24894 -2.94452 
Ar 6.74348 0.510219 0.473314 -1.55543 -3.35888 -7.22197 
Ar 0.4602 6.77189 0.487026 -9.04004 1.23281 -5.69127 
Ar 0.0060103 6.78879 6.79224 -3.9474 0.37439 0.881512 
Ar 0.481803 0.463308 0.95253 -7.94463 -10.069 -3.77139 
Ar 6.74256 0.498327 1.57297 -2.76007 -4.84026 11.683 
Ar 0.478977 6.76541 1.59267 -7.06063 -0.137858 14.2399 
Ar 6.78745 6.80612 0.99787 5.24212 7.08592 -0.633908 
Ar 0.487748 1.56283 6.75103 -5.83177 11.4559 -0.801563 
Ar 6.76765 1.57014 0.490613 0.74002 12.4287 -5.39451 
Ar 0.448117 0.998563 0.446734 -12.674 -0.278995 -12.9463 
Ar 6.78589 0.996799 6.78954 5.04344 -1.04238 5.46352 
Ar 0.482969 1.57833 0.979872 -8.79823 14.6127 -1.42109 
Ar 6.76977 1.53693 1.55946 0.937826 8.62924 11.2558 
Ar 0.45001 1.00471 1.59214 -12.937 0.376051 14.9258 
Ar 6.73919 0.992019 0.985602 2.46505 -1.54497 -2.31062 
Ar 1.56552 0.493965 6.74079 12.0159 -5.39182 -1.89298 
Ar 0.959893 0.480808 0.435631 -3.58767 -8.33676 -13.6148 
Ar 1.57306 6.76937 0.475832 12.5574 0.781592 -7.11878 
Ar 1.00565 6.78085 6.7844 0.571184 4.58082 4.92235 
Ar 1.57124 0.475225 0.976224 13.0786 -9.92326 -2.23214 
Ar 0.993058 0.46251 1.59356 -0.367417 -11.3982 15.5976 
Ar 1.56825 6.7533 1.55311 12.1657 -0.580714 10.4493 
Ar 1.01139 6.73351 1.00459 1.16103 2.1068 0.317672 
Ar 1.55087 1.55611 6.77142 10.1795 10.6538 1.19478 
Ar 0.994888 1.59494 0.471016 -0.0620023 16.0472 -10.0836 
Ar 1.59256 1.0068 0.459299 14.9141 0.83577 -11.0523 
Ar 0.991081 1.00327 6.71681 -0.909244 0.338662 -1.03185 
Ar 1.57768 1.56495 1.00592 15.3789 13.8539 0.386824 
Ar 1.01017 1.56134 1.56964 0.900751 14.0125 14.9874 
Ar 1.57064 0.993373 1.56231 15.1316 -1.12251 14.0555 
Ar 0.994298 0.999999 1.01196 -0.299812 -0.122275 0.85239 
