32
comment
Ar 4.88513 5.07603 1.13726 -28.1766 -23.9639 12.602 
Ar 1.41911 5.86755 5.73432 17.7814 -14.974 -14.9641 
Ar 4.97016 0.290107 5.59171 -22.9045 4.2635 -17.3965 
Ar 0.387772 0.27325 6.78479 6.57886 4.06951 -0.6103 
Ar 6.23744 6.10293 1.54161 -10.2366 -7.40636 6.46841 
Ar 0.291622 5.91506 4.12172 3.41677 -14.9711 26.2803 
Ar 5.65709 0.534543 4.46804 -17.08 4.90961 30.3019 
Ar 0.496833 0.767365 1.77902 4.46932 6.84355 8.35198 
Ar 5.70425 4.49825 0.700592 -18.1787 31.3379 6.40764 
Ar 6.39799 3.87252 6.35036 -4.36141 20.7823 -4.47122 
Ar 5.86328 1.68528 5.17416 -12.5155 8.4448 -19.5914 
Ar 0.553058 1.97476 0.399931 3.03585 11.763 0.215048 
Ar 6.5969 3.7608 1.73964 -5.99738 22.1382 9.53096 
Ar 6.77305 3.38668 3.58725 -1.17251 19.1629 20.7876 
Ar 5.85394 1.64502 3.59734 -13.3908 9.77864 19.7549 
Ar 6.74138 2.00243 1.51877 -0.75054 11.9576 6.62592 
Ar 4.44885 5.89429 0.800816 30.6645 -15.4503 8.53404 
Ar 2.45442 6.48847 6.44993 20.3009 -8.97666 3.24539 
Ar 3.77981 6.58483 5.98309 20.7141 -2.47093 -10.9564 
Ar 1.90991 0.592678 0.253248 10.052 5.76861 0.888175 
Ar 3.61411 6.0513 1.69611 21.5117 -11.8637 8.87026 
Ar 1.32724 5.6636 3.3649 4.48698 -16.0129 17.5372 
Ar 3.59442 0.142418 3.78202 20.8057 -0.456963 23.8622 
Ar 1.57979 0.618637 1.46006 6.38143 5.50831 6.258 
Ar 3.52932 3.76225 0.000945897 19.5708 24.6013 -0.989015 
Ar 1.32908 3.58965 5.88289 5.43687 20.1295 -13.9822 
Ar 3.24631 1.21895 5.96512 16.4363 3.34194 -12.8134 
Ar 1.84462 2.0998 0.44493 10.92 12.0048 4.75495 
Ar 3.61294 3.41977 0.856553 20.4582 17.5732 1.92395 
Ar 1.0197 3.49679 3.35758 0.741896 19.3703 17.7648 
Ar 3.33432 1.22985 3.20877 17.4026 4.11778 16.0989 
Ar 0.931241 1.82249 1.25508 0.391917 10.5432 6.16161 
