32
comment
Ar 0.118777 0.553466 3.96144 10.2468 36.2556 18.0053 
Ar 5.39088 5.27636 5.25629 29.6792 0.315011 -7.44189 
Ar 4.78033 5.67444 2.33289 -1.92754 -7.73609 -19.0697 
Ar 6.03696 3.10292 5.72556 11.2258 15.3665 4.67912 
Ar 2.17445 2.52017 4.05692 -9.34188 -3.69314 19.1879 
Ar 2.1113 6.38409 2.50764 4.0766 21.9365 16.1973 
Ar 1.09325 5.16941 6.57377 5.45451 2.48101 21.905 
Ar 0.129483 5.41486 6.62279 15.8524 15.3229 5.72074 
Ar 6.61906 2.00425 3.93967 -12.9684 5.03025 9.25829 
Ar 5.42601 1.3776 3.81909 3.62519 -5.55402 30.3648 
Ar 5.86274 5.94682 1.77638 -13.3426 -8.3247 23.7432 
Ar 4.76869 4.19124 1.5323 19.4535 14.6705 -0.447767 
Ar 4.91553 2.59226 2.07043 0.468041 10.6697 13.4609 
Ar 0.294287 0.392494 6.37115 3.67622 3.47976 8.27523 
Ar 4.19418 3.34705 0.62675 -6.90297 20.6942 14.0922 
Ar 2.48784 1.22929 4.42833 0.93978 29.1177 -9.35563 
Ar 0.00456914 2.58187 2.30592 13.3406 -11.5327 -0.723566 
Ar 0.0102876 5.21439 2.34149 10.7933 -10.7483 16.0154 
Ar 0.737236 4.11534 6.28268 30.5984 -18.9267 20.0209 
Ar 3.68715 6.06735 0.224987 10.4863 25.3616 14.3138 
Ar 5.85588 5.50388 6.25291 22.0854 -10.2182 24.484 
Ar 4.30066 1.89045 4.24982 5.48305 -11.0755 -4.13656 
Ar 6.63706 4.50879 6.75454 -20.661 -22.7876 8.75632 
Ar 6.53943 1.07328 6.04096 6.97421 20.6817 34.3569 
Ar 2.42045 4.48873 3.26787 34.6964 15.4583 10.1712 
Ar 4.54639 3.39868 2.34184 2.12075 19.7004 -19.5497 
Ar 0.990729 5.62915 0.862445 27.0255 12.7374 31.2314 
Ar 1.13504 0.680068 5.62791 9.52681 28.9881 7.08787 
Ar 0.297841 1.7184 2.64643 18.1147 12.6873 9.06948 
Ar 2.6923 5.1742 1.99359 6.13107 -0.675006 -0.0587999 
Ar 2.05503 2.71379 4.05771 29.9814 -3.42478 -18.4923 
Ar 1.93072 6.69904 0.114117 13.4554 9.07968 13.5455 
