32
comment
Ar 0.772394 0.772394 0 -0.5173 -0.432045 1.53441 
Ar 0 0.772394 0.772394 0.48895 1.10845 -0.211215 
Ar 0.772394 0 0.772394 -1.52257 0.959137 1.16004 
Ar 0 0 0 0.672428 -2.0493 -1.70456 
Ar 0.772394 0.772394 1.54479 0.615091 -1.23439 0.0362574 
Ar 0 0.772394 2.31718 0.342643 -0.251428 0.00710513 
Ar 0.772394 0 2.31718 0.272134 0.169613 1.9776 
Ar 0 0 1.54479 0.088258 1.86842 -0.42381 
Ar 0.772394 2.31718 0 -1.13592 -0.783539 1.27833 
Ar 0 2.31718 0.772394 0.56731 -0.0613052 1.53028 
Ar 0.772394 1.54479 0.772394 -0.478652 -0.29624 -0.725968 
Ar 0 1.54479 0 -0.226416 -0.32037 0.143004 
Ar 0.772394 2.31718 1.54479 0.491091 -1.66392 0.120355 
Ar 0 2.31718 2.31718 0.713721 -0.645567 1.14102 
Ar 0.772394 1.54479 2.31718 -0.355843 0.686221 -0.578882 
Ar 0 1.54479 1.54479 1.80034 -0.576587 -1.56747 
Ar 2.31718 0.772394 0 -0.525918 -0.505609 0.256262 
Ar 1.54479 0.772394 0.772394 -1.98242 0.352332 -2.09083 
Ar 2.31718 0 0.772394 0.0357549 0.653635 -0.252518 
Ar 1.54479 0 0 0.372045 -0.562291 -0.419366 
Ar 2.31718 0.772394 1.54479 -2.59358 -0.123565 -0.300508 
Ar 1.54479 0.772394 2.31718 1.68932 -1.56357 -0.0179784 
Ar 2.31718 0 2.31718 2.41677 -1.14508 0.930121 
Ar 1.54479 0 1.54479 1.16659 1.33471 0.265926 
Ar 2.31718 2.31718 0 0.374636 0.897486 0.964094 
Ar 1.54479 2.31718 0.772394 -0.841699 0.330314 1.57899 
Ar 2.31718 1.54479 0.772394 -0.11087 0.92108 0.2029 
Ar 1.54479 1.54479 0 -0.914262 0.710796 -0.654586 
Ar 2.31718 2.31718 1.54479 1.02677 -0.166216 0.258515 
Ar 1.54479 2.31718 2.31718 1.0667 -0.29047 0.197168 
Ar 2.31718 1.54479 2.31718 0.671427 -0.359731 -0.204165 
Ar 1.54479 1.54479 1.54479 -0.122417 0.538188 1.01447 
32
comment
Ar 0.767299 0.768152 0.0151519 -0.51111 -0.418305 1.46171 
Ar 0.00464007 0.783558 0.770416 0.424677 1.11704 -0.208306 
Ar 0.757231 0.00935952 0.784126 -1.49404 0.892949 1.15557 
Ar 0.00661838 10.4994 10.5029 0.657866 -2.05451 -1.71329 
Ar 0.778658 0.760212 1.54512 0.6418 -1.18061 0.0413723 
Ar 0.00330213 0.769949 2.31738 0.316122 -0.228606 0.035035 
Ar 0.775197 0.00151074 2.33713 0.282371 0.13698 1.9976 
Ar 0.000699 0.0185542 1.54062 0.0440034 1.82863 -0.405346 
Ar 0.761103 2.30949 0.0126451 -1.11764 -0.764808 1.24192 
Ar 0.00546591 2.31671 0.787833 0.522441 -0.0311827 1.53689 
Ar 0.767771 1.54171 0.76535 -0.435738 -0.310357 -0.700277 
Ar 10.5175 1.54158 0.00125452 -0.223087 -0.316853 0.107776 
Ar 0.777448 2.30072 1.54595 0.507044 -1.60268 0.118708 
Ar 0.00707128 2.3108 2.32866 0.69474 -0.629002 1.14801 
Ar 0.76895 1.55146 2.31161 -0.32324 0.634856 -0.525762 
Ar 0.017802 1.53886 1.52914 1.74255 -0.602078 -1.53707 
Ar 2.31207 0.767406 0.00242412 -0.511228 -0.484859 0.225431 
Ar 1.52489 0.77601 0.751625 -1.96252 0.373636 -2.05453 
Ar 2.31763 0.00642989 0.769958 0.0499146 0.625574 -0.248082 
Ar 1.54841 10.5142 10.5157 0.343981 -0.567654 -0.423516 
Ar 2.29136 0.771251 1.54165 -2.53268 -0.0980713 -0.326875 
Ar 1.56154 0.756873 2.31728 1.65575 -1.53253 0.0470416 
Ar 2.34152 10.5084 2.32656 2.43753 -1.15988 0.936456 
Ar 1.55639 0.0130361 1.54743 1.13929 1.25592 0.260342 
Ar 2.32101 2.32623 0.00956575 0.378665 0.907374 0.951313 
Ar 1.53628 2.32067 0.788275 -0.846239 0.361593 1.57505 
Ar 2.31621 1.55392 0.774495 -0.0926506 0.893103 0.209566 
Ar 1.53563 1.552 10.5132 -0.904704 0.72061 -0.660702 
Ar 2.32761 2.3157 1.54736 1.05569 -0.13189 0.251856 
Ar 1.55543 2.31443 2.31929 1.05392 -0.256691 0.227696 
Ar 2.32407 1.54112 2.31528 0.7046 -0.370492 -0.174636 
Ar 1.54344 1.54999 1.5549 -0.142734 0.492799 0.989728 
32
comment
Ar 0.762171 0.764027 0.0292341 -0.534621 -0.410732 1.30634 
Ar 0.00841914 0.794737 0.768298 0.316993 1.10681 -0.227042 
Ar 0.74249 0.0178181 0.795566 -1.43491 0.777922 1.10941 
Ar 0.0131344 10.4789 10.4857 0.651648 -2.0543 -1.72442 
Ar 0.785239 0.748859 1.54569 0.679955 -1.06843 0.0817323 
Ar 0.006337 0.767822 2.31787 0.290031 -0.188501 0.0660775 
Ar 0.778053 0.00269898 2.35716 0.287723 0.105702 1.99679 
Ar 0.000787186 0.0365874 1.53679 -0.034997 1.76325 -0.358053 
Ar 0.75004 2.30188 0.0248391 -1.09033 -0.747133 1.18612 
Ar 0.010372 2.31656 0.80321 0.457091 0.0121701 1.52334 
Ar 0.763749 1.53856 0.75851 -0.357707 -0.307064 -0.672976 
Ar 10.5156 1.53846 0.00210157 -0.154732 -0.303554 0.0613351 
Ar 0.782603 2.2851 1.5472 0.506937 -1.48985 0.133999 
Ar 0.0139036 2.3046 2.34013 0.664725 -0.607464 1.14232 
Ar 0.765972 1.55736 2.30671 -0.266296 0.532229 -0.443162 
Ar 0.0348429 1.53264 1.51411 1.64546 -0.633469 -1.43904 
Ar 2.30696 0.762697 0.00450894 -0.508607 -0.44989 0.187619 
Ar 1.50555 0.779856 0.731345 -1.85884 0.393336 -1.96846 
Ar 2.31814 0.0125316 0.767453 0.0544169 0.58916 -0.253261 
Ar 1.5516 10.5087 10.5115 0.29334 -0.526685 -0.406894 
Ar 2.26646 0.770441 1.53819 -2.39767 -0.0359472 -0.378942 
Ar 1.57783 0.741764 2.31824 1.58961 -1.47414 0.15881 
Ar 2.36602 10.4969 2.3359 2.44842 -1.15314 0.926517 
Ar 1.56748 0.024911 1.54991 1.05718 1.09582 0.231604 
Ar 2.32476 2.33533 0.0190266 0.367988 0.913522 0.942208 
Ar 1.52785 2.3244 0.803894 -0.825241 0.387443 1.53369 
Ar 2.31527 1.56264 0.776575 -0.0957806 0.841372 0.206855 
Ar 1.5267 1.55933 10.5068 -0.869782 0.733388 -0.625773 
Ar 2.33831 2.31457 1.54987 1.07975 -0.0939133 0.246118 
Ar 1.5659 2.31206 2.32173 1.03504 -0.215035 0.263527 
Ar 2.33131 1.53732 2.31368 0.739783 -0.384907 -0.143756 
Ar 1.54194 1.55457 1.56462 -0.151373 0.412274 0.937728 
32
comment
Ar 0.756607 0.759937 0.0412788 -0.597853 -0.413029 1.05139 
Ar 0.0108901 0.8057 0.76596 0.162193 1.05294 -0.240739 
Ar 0.728501 0.0248832 0.806378 -1.38769 0.61494 1.07005 
Ar 0.0196328 10.4584 10.4684 0.653887 -2.06386 -1.7417 
Ar 0.792269 0.738939 1.54685 0.697237 -0.925031 0.157846 
Ar 0.00911659 0.766179 2.31868 0.265278 -0.154551 0.0778419 
Ar 0.780962 0.00359086 2.37709 0.297128 0.0775814 1.98411 
Ar 10.5199 0.0538476 1.53359 -0.0259208 1.67402 -0.279866 
Ar 0.739296 2.29455 0.0363675 -1.05451 -0.710231 1.10696 
Ar 0.0145245 2.31696 0.818386 0.372785 0.0791484 1.49571 
Ar 0.760702 1.53555 0.752013 -0.241098 -0.277905 -0.634179 
Ar 10.5145 1.53552 0.00241134 -0.0695712 -0.281266 0.000177899 
Ar 0.787664 2.2709 1.54868 0.483098 -1.3176 0.165413 
Ar 0.0203732 2.29866 2.35149 0.621409 -0.575519 1.12783 
Ar 0.763681 1.56198 2.30281 -0.188652 0.382112 -0.324408 
Ar 0.0507134 1.52614 1.50044 1.50616 -0.657273 -1.26233 
Ar 2.3019 0.758408 0.00617635 -0.501991 -0.400736 0.141115 
Ar 1.48775 0.783868 0.712295 -1.65741 0.403307 -1.81132 
Ar 2.31869 0.0182221 0.764913 0.0586418 0.543477 -0.254226 
Ar 1.55422 10.5037 10.5076 0.230464 -0.482418 -0.392838 
Ar 2.24336 0.770542 1.53402 -2.17218 0.0842406 -0.475007 
Ar 1.59327 0.727404 2.3206 1.48724 -1.38395 0.33258 
Ar 2.39057 10.4854 2.34508 2.44946 -1.15722 0.903794 
Ar 1.57745 0.034647 1.55197 0.923856 0.835567 0.176584 
Ar 2.32837 2.34451 0.0284102 0.352417 0.923929 0.935158 
Ar 1.51976 2.32841 0.818943 -0.773736 0.416945 1.45932 
Ar 2.31425 1.57075 0.778619 -0.109619 0.7707 0.202389 
Ar 1.51824 1.56679 10.5008 -0.812095 0.7474 -0.59094 
Ar 2.34922 2.31385 1.55233 1.09789 -0.0533051 0.242081 
Ar 1.57616 2.31014 2.32455 1.01114 -0.166271 0.304453 
Ar 2.3389 1.53336 2.31239 0.775397 -0.402579 -0.113285 
Ar 1.54045 1.55818 1.57371 -0.138834 0.301427 0.864935 
32
comment
Ar 0.750214 0.755767 0.0502619 -0.668806 -0.428783 0.730093 
Ar 0.0115646 0.815805 0.763577 -0.0404249 0.962125 -0.271063 
Ar 0.714697 0.0300964 0.817026 -1.29922 0.405166 0.975027 
Ar 0.0261952 10.4377 10.4509 0.66373 -2.08008 -1.76606 
Ar 0.7992 0.730468 1.54895 0.729392 -0.722661 0.270183 
Ar 0.0116537 0.764731 2.31941 0.242324 -0.106351 0.0975004 
Ar 0.784006 0.00422146 2.39686 0.306307 0.0538562 1.95917 
Ar 0.000457195 0.0701083 1.53136 -0.0377803 1.56135 -0.164146 
Ar 0.728949 2.28768 0.0469794 -1.01168 -0.650054 1.00147 
Ar 0.0177413 2.31814 0.833217 0.271405 0.168317 1.45456 
Ar 0.758998 1.53294 0.745962 -0.0913686 -0.226121 -0.584454 
Ar 10.5143 1.53284 0.00202518 0.0340267 -0.251124 -0.0778659 
Ar 0.792344 2.25872 1.55055 0.426512 -1.08481 0.214307 
Ar 0.0263371 2.29309 2.36268 0.563805 -0.531434 1.1075 
Ar 0.762247 1.56483 2.30029 -0.0970352 0.183087 -0.170061 
Ar 0.064985 1.51932 1.48896 1.32487 -0.693316 -0.998877 
Ar 2.29692 0.754682 0.00733181 -0.491834 -0.337831 0.0846481 
Ar 1.47236 0.787889 0.695128 -1.40491 0.391757 -1.62012 
Ar 2.31929 0.0234025 0.762388 0.0629452 0.487347 -0.249324 
Ar 1.55616 10.4991 10.5037 0.157275 -0.435718 -0.381989 
Ar 2.22297 0.772133 1.52866 -1.88799 0.228402 -0.616205 
Ar 1.6075 0.71408 2.32502 1.35227 -1.27037 0.567009 
Ar 2.41507 10.4738 2.35397 2.43991 -1.17088 0.871472 
Ar 1.586 0.04153 1.55336 0.782143 0.537977 0.0962145 
Ar 2.33181 2.35381 0.0377301 0.333373 0.938249 0.929046 
Ar 1.51236 2.33273 0.833074 -0.687391 0.450829 1.34883 
Ar 2.31304 1.57808 0.780605 -0.132164 0.685857 0.195343 
Ar 1.51046 1.5744 10.4951 -0.734412 0.760283 -0.554397 
Ar 2.36028 2.31354 1.55475 1.10922 -0.0114249 0.240325 
Ar 1.58616 2.30874 2.3278 0.983112 -0.112625 0.349085 
Ar 2.34684 1.52922 2.31141 0.809393 -0.422893 -0.0848439 
Ar 1.53921 1.56055 1.58199 -0.102345 0.165237 0.777456 
32
comment
Ar 0.743231 0.751362 0.0558806 -0.716664 -0.458278 0.379656 
Ar 0.00998676 0.824954 0.760631 -0.283508 0.830833 -0.316381 
Ar 0.702471 0.032988 0.825927 -1.21028 0.165666 0.861324 
Ar 0.0328903 10.4168 10.4331 0.679926 -2.10071 -1.79583 
Ar 0.806872 0.724582 1.55234 0.75782 -0.486675 0.408211 
Ar 0.0139726 0.764052 2.32062 0.220914 -0.0569123 0.113546 
Ar 0.787096 0.00464566 2.41629 0.317363 0.0349329 1.9281 
Ar 10.519 0.0851444 1.53044 -0.0287307 1.43139 -0.0235853 
Ar 0.719062 2.28155 0.0563967 -0.964027 -0.562315 0.86749 
Ar 0.0198677 2.32033 0.84757 0.156426 0.276412 1.40178 
Ar 0.758946 1.53097 0.740435 0.0842239 -0.150242 -0.526548 
Ar 10.5153 1.5305 0.000765543 0.157087 -0.214534 -0.174338 
Ar 0.796276 2.24918 1.55301 0.332092 -0.797437 0.283686 
Ar 0.031652 2.28803 2.37364 0.493184 -0.474382 1.08433 
Ar 0.761803 1.5655 2.29951 0.00739957 -0.0505302 0.0190277 
Ar 0.077268 1.51224 1.48053 1.11005 -0.709918 -0.656823 
Ar 2.29206 0.751652 0.00786892 -0.477908 -0.262054 0.0172839 
Ar 1.45964 0.791671 0.679896 -1.12771 0.353815 -1.42588 
Ar 2.31994 0.0279674 0.759941 0.0691738 0.4205 -0.238508 
Ar 1.55733 10.495 10.4999 0.0781567 -0.387175 -0.37259 
Ar 2.20557 0.775117 1.52167 -1.58137 0.360855 -0.790889 
Ar 1.6203 0.701996 2.33205 1.20516 -1.1411 0.845236 
Ar 2.43942 10.462 2.36251 2.42103 -1.19258 0.833088 
Ar 1.59322 0.0453279 1.55385 0.658807 0.221647 -0.000226802 
Ar 2.33504 2.36327 0.0469913 0.3121 0.956018 0.923189 
Ar 1.506 2.33743 0.845917 -0.563809 0.489978 1.20134 
Ar 2.31158 1.5845 0.782502 -0.161167 0.591823 0.184553 
Ar 1.50356 1.58212 10.4898 -0.638522 0.770678 -0.514352 
Ar 2.37142 2.31365 1.55717 1.11343 0.0304211 0.241113 
Ar 1.59586 2.30789 2.33152 0.952102 -0.0568894 0.395158 
Ar 2.35511 1.52485 2.31069 0.840285 -0.444861 -0.0597757 
Ar 1.53846 1.56149 1.58934 -0.0424033 0.0178187 0.68134 
32
comment
Ar 0.735881 0.746601 0.057855 -0.747285 -0.499364 0.0109271 
Ar 0.00581824 0.832434 0.757328 -0.5491 0.665938 -0.344192 
Ar 0.690443 0.0334333 0.834285 -1.19073 -0.0789154 0.802467 
Ar 0.0397764 10.3957 10.415 0.701234 -2.12402 -1.82568 
Ar 0.81437 0.72081 1.55718 0.7409 -0.270305 0.556518 
Ar 0.0160779 0.763592 2.32168 0.199949 -0.0363154 0.0968103 
Ar 0.79036 0.00490171 2.43544 0.334466 0.0202932 1.8986 
Ar 10.5198 0.0988102 1.53085 0.208605 1.28502 0.102089 
Ar 0.709668 2.27643 0.0643294 -0.914674 -0.444434 0.705243 
Ar 0.0207912 2.32367 0.861342 0.0326334 0.394461 1.34131 
Ar 0.760717 1.52981 0.735527 0.264893 -0.0636057 -0.454096 
Ar 10.5176 1.52855 10.5185 0.294196 -0.174703 -0.174637 
Ar 0.799063 2.24275 1.55627 0.208657 -0.472895 0.370016 
Ar 0.0362003 2.2836 2.38436 0.413392 -0.408159 1.05977 
Ar 0.762448 1.56369 2.30076 0.119262 -0.305889 0.231741 
Ar 0.0872752 1.50498 1.47581 0.872905 -0.73559 -0.279179 
Ar 2.28736 0.749441 0.00767739 -0.460076 -0.175214 -0.0607397 
Ar 1.44979 0.79491 0.666631 -0.832602 0.283082 -1.22738 
Ar 2.32067 0.0318128 0.757627 0.077846 0.343564 -0.222908 
Ar 1.55769 10.4914 10.4963 -0.00504907 -0.33741 -0.365314 
Ar 2.19131 0.779355 1.51282 -1.2653 0.475605 -0.975875 
Ar 1.63163 0.691255 2.34197 1.06386 -1.00789 1.12932 
Ar 2.46353 10.45 2.37064 2.39362 -1.22068 0.791432 
Ar 1.59926 0.0459188 1.55335 0.542596 -0.0997321 -0.0979057 
Ar 2.33805 2.37293 0.0561941 0.289537 0.976531 0.917368 
Ar 1.50106 2.34254 0.857113 -0.412984 0.532699 1.02823 
Ar 2.3098 1.58995 0.784265 -0.194809 0.493489 0.168734 
Ar 1.49769 1.58992 10.4849 -0.526619 0.777195 -0.470184 
Ar 2.38256 2.31417 1.55961 1.11049 0.0707427 0.24432 
Ar 1.60523 2.3076 2.33569 0.918891 -0.00284696 0.439586 
Ar 2.36366 1.52027 2.31019 0.866493 -0.467679 -0.0392683 
Ar 1.53838 1.56096 1.59571 0.028887 -0.122988 0.582428 
32
comment
Ar 0.728285 0.741374 0.0560992 -0.83839 -0.541366 -0.292299 
Ar 10.519 0.838284 0.7538 -0.557541 0.525791 -0.38508 
Ar 0.678417 0.0316763 0.841968 -1.13121 -0.271484 0.64901 
Ar 0.0469008 10.3744 10.3967 0.726892 -2.13624 -1.84616 
Ar 0.821745 0.719215 1.56354 0.801146 -0.0110529 0.711639 
Ar 0.0179746 0.763323 2.3226 0.180016 0.0267065 0.14593 
Ar 0.793794 0.00503323 2.45428 0.343294 0.0106179 1.85759 
Ar 0.00307698 0.110932 1.53245 0.19681 1.14098 0.189222 
Ar 0.700777 2.27268 0.0704932 -0.864828 -0.299087 0.521886 
Ar 0.0204533 2.32828 0.874482 -0.0941931 0.522591 1.27879 
Ar 0.763734 1.52909 0.731415 0.329186 -0.061284 -0.364026 
Ar 0.00126925 1.527 10.5174 0.290454 -0.186064 -0.0997382 
Ar 0.800526 2.23971 1.56046 0.0783943 -0.134436 0.465972 
Ar 0.0399162 2.27987 2.39484 0.330411 -0.338404 1.03492 
Ar 0.764231 1.55926 2.30422 0.233628 -0.564083 0.453954 
Ar 0.0947375 1.49655 1.47406 0.60648 -0.939584 -0.0692951 
Ar 2.28286 0.748148 0.00665357 -0.437337 -0.0800639 -0.148345 
Ar 1.44303 0.797252 0.65538 -0.513408 0.176553 -1.02342 
Ar 2.3215 0.0348444 0.755483 0.0897365 0.257977 -0.20512 
Ar 1.55721 10.4883 10.4927 -0.0895092 -0.286678 -0.359845 
Ar 2.18024 0.784631 1.50213 -0.951028 0.564379 -1.14374 
Ar 1.64164 0.681838 2.35461 0.9433 -0.881106 1.37848 
Ar 2.48733 10.4376 2.37834 2.35902 -1.25352 0.748763 
Ar 1.60412 0.0433219 1.55193 0.422884 -0.412751 -0.180611 
Ar 2.34083 2.3828 0.0653387 0.266522 0.999028 0.911664 
Ar 1.49774 2.34809 0.866478 -0.250152 0.57594 0.846437 
Ar 2.30767 1.59442 0.785835 -0.230821 0.396262 0.146331 
Ar 1.49297 1.59777 10.4804 -0.410994 0.779488 -0.421089 
Ar 2.39364 2.31509 1.56208 1.10078 0.108121 0.249462 
Ar 1.61426 2.30783 2.3403 0.88428 0.0458591 0.479377 
Ar 2.37245 1.51546 2.30988 0.886893 -0.490513 -0.0240875 
Ar 1.53902 1.55914 1.6011 0.0949796 -0.234227 0.487484 
32
comment
Ar 0.719113 0.735774 0.052009 -0.997386 -0.578621 -0.518256 
Ar 10.5147 0.842962 0.749673 -0.298155 0.411829 -0.440978 
Ar 0.667821 0.0279989 0.847274 -0.985202 -0.448214 0.419262 
Ar 0.0542959 10.353 10.3781 0.75502 -2.1538 -1.8717 
Ar 0.830403 0.720588 1.5714 0.932772 0.265436 0.849415 
Ar 0.0196805 0.764126 2.32459 0.160676 0.13593 0.261763 
Ar 0.797228 0.0051045 2.4726 0.341756 0.00684916 1.80411 
Ar 0.00387285 0.12173 1.53466 -0.0466678 1.00633 0.241925 
Ar 0.692372 2.27045 0.0747669 -0.818184 -0.145492 0.336419 
Ar 0.0188531 2.33413 0.886985 -0.218592 0.6381 1.2175 
Ar 0.767293 1.52854 0.728195 0.378758 -0.039267 -0.271387 
Ar 0.00331063 1.52476 10.5165 0.116538 -0.25981 -0.0780461 
Ar 0.800692 2.24004 1.56563 -0.0494435 0.184779 0.572121 
Ar 0.0428021 2.27684 2.40506 0.25098 -0.271991 1.00907 
Ar 0.767156 1.55234 2.30989 0.346156 -0.800867 0.66839 
Ar 0.0995377 1.48614 1.47439 0.34741 -1.12231 0.129154 
Ar 2.27862 0.74784 0.00471022 -0.408919 0.019933 -0.243455 
Ar 1.4395 0.798393 0.646193 -0.197148 0.0512403 -0.813688 
Ar 2.32246 0.0369878 0.753512 0.105255 0.166309 -0.188943 
Ar 1.55588 10.4857 10.4891 -0.173805 -0.236064 -0.356279 
Ar 2.17228 0.790643 1.48993 -0.643135 0.619787 -1.27392 
Ar 1.65059 0.673642 2.36946 0.852505 -0.766022 1.56591 
Ar 2.51074 10.4249 2.38561 2.31915 -1.28958 0.706794 
Ar 1.60778 0.0376752 1.5498 0.301616 -0.707831 -0.238438 
Ar 2.34338 2.39291 0.0744275 0.243513 1.02258 0.906411 
Ar 1.49605 2.35406 0.874036 -0.0872074 0.615337 0.667256 
Ar 2.30518 1.59795 0.787137 -0.267611 0.305875 0.115383 
Ar 1.48946 1.6056 10.4765 -0.286404 0.776063 -0.370501 
Ar 2.40458 2.31635 1.56462 1.08474 0.141163 0.255667 
Ar 1.62293 2.30851 2.34527 0.848907 0.086289 0.51198 
Ar 2.38141 1.51042 2.3097 0.900735 -0.512486 -0.0147323 
Ar 1.54021 1.55645 1.60556 0.1378 -0.294445 0.400603 
32
comment
Ar 0.708337 0.729802 0.0457341 -1.15965 -0.613722 -0.728366 
Ar 10.513 0.846532 0.745024 -0.0385271 0.303872 -0.48664 
Ar 0.658715 0.0227151 0.850353 -0.831437 -0.589852 0.208484 
Ar 0.0619823 10.3313 10.3592 0.784792 -2.17253 -1.8986 
Ar 0.840399 0.724492 1.58049 1.06173 0.485069 0.954603 
Ar 0.0211907 0.766041 2.32783 0.140588 0.24581 0.394995 
Ar 0.80063 0.00516511 2.49036 0.336671 0.00801418 1.74753 
Ar 0.00228167 0.131199 1.53733 -0.277336 0.877927 0.281966 
Ar 0.684413 2.26977 0.0772213 -0.776553 0.0082151 0.158852 
Ar 0.0160409 2.34105 0.898883 -0.335926 0.732377 1.16012 
Ar 0.7713 1.52825 0.72593 0.417195 -0.0137653 -0.169545 
Ar 0.00352902 1.52175 10.5158 -0.0711829 -0.338452 -0.0563902 
Ar 0.799587 2.24339 1.57193 -0.174382 0.457441 0.697498 
Ar 0.0449264 2.27443 2.41503 0.180848 -0.214935 0.981872 
Ar 0.771183 1.54322 2.31762 0.453125 -0.997428 0.862755 
Ar 0.101827 1.47408 1.47662 0.109894 -1.26633 0.304103 
Ar 2.27469 0.748546 0.00178415 -0.373458 0.120796 -0.343477 
Ar 1.43906 0.79826 0.639137 0.1029 -0.0786543 -0.597169 
Ar 2.3236 0.0381964 0.751678 0.124298 0.07155 -0.178211 
Ar 1.55372 10.4836 10.4855 -0.256258 -0.186441 -0.354521 
Ar 2.16736 0.797024 1.47664 -0.353536 0.654469 -1.35397 
Ar 1.65879 0.66653 2.38584 0.790017 -0.664784 1.68315 
Ar 2.53372 10.4119 2.39248 2.27568 -1.32753 0.666612 
Ar 1.6102 0.0291814 1.54724 0.175123 -0.981622 -0.267556 
Ar 2.3457 2.40325 0.083467 0.220943 1.04635 0.901964 
Ar 1.49599 2.3604 0.879815 0.0755603 0.649358 0.490868 
Ar 2.30232 1.60062 0.788073 -0.303285 0.2285 0.0736348 
Ar 1.48722 1.61337 10.473 -0.156835 0.766628 -0.320943 
Ar 2.41534 2.31792 1.56721 1.06292 0.168672 0.261922 
Ar 1.63125 2.30956 2.35053 0.81343 0.116645 0.535958 
Ar 2.39047 1.50517 2.30957 0.907592 -0.532853 -0.0113799 
Ar 1.54178 1.55335 1.60919 0.171397 -0.318728 0.32098 
32
comment
Ar 0.69592 0.7235 0.0374417 -1.32947 -0.642673 -0.923299 
Ar 10.514 0.849051 0.739983 0.227962 0.201482 -0.515796 
Ar 0.651195 0.0162107 0.851437 -0.746563 -0.678998 0.103702 
Ar 0.0699727 10.3095 10.3401 0.815591 -2.19155 -1.92411 
Ar 0.851629 0.730244 1.59044 1.12938 0.598966 1.02014 
Ar 0.0224957 0.769042 2.33249 0.116904 0.2901 0.467221 
Ar 0.803961 0.00526312 2.50755 0.335405 0.0126483 1.69778 
Ar 10.5185 0.139456 1.54037 -0.274099 0.749427 0.335004 
Ar 0.67684 2.27062 0.077943 -0.74209 0.163411 -0.00970329 
Ar 0.0121065 2.34879 0.910223 -0.442887 0.802079 1.10698 
Ar 0.775635 1.52823 0.724738 0.44071 0.0136379 -0.054259 
Ar 0.00183115 1.51796 10.5153 -0.263637 -0.412597 -0.0370189 
Ar 0.797244 2.24918 1.5796 -0.295675 0.668682 0.84622 
Ar 0.0464064 2.27254 2.42471 0.123539 -0.170648 0.953604 
Ar 0.77625 1.53242 2.32719 0.554477 -1.13871 1.0336 
Ar 0.101881 1.46092 1.48046 -0.0961397 -1.34236 0.447474 
Ar 2.27115 0.750256 10.5178 -0.335552 0.225974 -0.34273 
Ar 1.44188 0.796795 0.634021 0.457403 -0.21545 -0.428559 
Ar 2.32493 0.0388311 0.74951 0.1408 0.0535342 -0.257013 
Ar 1.55075 10.482 10.482 -0.334978 -0.138429 -0.356999 
Ar 2.1652 0.803728 1.4629 -0.0889151 0.683014 -1.36768 
Ar 1.66648 0.660363 2.40306 0.751301 -0.576116 1.73823 
Ar 2.55626 10.3984 2.39895 2.23036 -1.36616 0.629235 
Ar 1.61136 0.0180441 1.54453 0.0473913 -1.23692 -0.267374 
Ar 2.3478 2.41387 0.0924684 0.199518 1.07584 0.89887 
Ar 1.49756 2.36706 0.883847 0.23731 0.67886 0.317815 
Ar 2.29912 1.60268 0.788575 -0.335395 0.18221 0.0289643 
Ar 1.48629 1.621 10.4701 -0.0263615 0.751825 -0.273519 
Ar 2.42585 2.31974 1.56987 1.03603 0.190439 0.26791 
Ar 1.63922 2.31085 2.35598 0.77852 0.136466 0.551041 
Ar 2.39956 1.49974 2.30946 0.907546 -0.550693 -0.0133502 
Ar 1.54362 1.55024 1.61207 0.193886 -0.29871 0.252083 
32
comment
Ar 0.681748 0.716948 0.0272681 -1.50743 -0.663946 -1.10289 
Ar 10.5176 0.850573 0.734737 0.496824 0.102585 -0.533901 
Ar 0.643787 0.00914809 0.852415 -0.730016 -0.717952 0.101372 
Ar 0.0782752 10.2875 10.3207 0.847005 -2.20836 -1.94833 
Ar 0.862978 0.736433 1.60085 1.14165 0.612352 1.04912 
Ar 0.0235319 0.771843 2.33718 0.0880226 0.262429 0.474131 
Ar 0.807337 0.00541708 2.52432 0.338191 0.0201502 1.65546 
Ar 10.5167 0.146364 1.54408 -0.0830696 0.623707 0.398093 
Ar 0.669571 2.27304 0.077027 -0.716048 0.320681 -0.168754 
Ar 0.00716531 2.35709 0.921048 -0.537363 0.846725 1.05737 
Ar 0.780105 1.52846 0.724791 0.444316 0.0376476 0.0789354 
Ar 10.5182 1.51349 10.515 -0.27096 -0.394768 0.0640494 
Ar 0.7937 2.25675 1.58887 -0.407209 0.815342 1.01125 
Ar 0.0473804 2.27102 2.43412 0.0799757 -0.141429 0.924533 
Ar 0.782288 1.52048 2.33834 0.647981 -1.22416 1.18005 
Ar 0.100029 1.44724 1.48557 -0.269476 -1.36921 0.557635 
Ar 2.26798 0.753065 10.5149 -0.291466 0.334318 -0.235496 
Ar 1.4482 0.793941 0.630588 0.803205 -0.356756 -0.261826 
Ar 2.32643 0.0392622 0.746539 0.15879 0.0312106 -0.337267 
Ar 1.54701 10.4809 10.4784 -0.408948 -0.0919211 -0.359745 
Ar 2.16559 0.810672 1.44929 0.161332 0.700847 -1.33047 
Ar 1.67387 0.65502 2.42055 0.727314 -0.498464 1.74316 
Ar 2.57834 10.3845 2.40507 2.18417 -1.40477 0.594576 
Ar 1.61119 0.00444536 1.54193 -0.0888285 -1.47473 -0.246471 
Ar 2.34969 2.42477 0.101444 0.179388 1.1042 0.896796 
Ar 1.50071 2.37397 0.886199 0.388481 0.700483 0.156688 
Ar 2.29563 1.6044 0.788546 -0.362629 0.162094 -0.0319905 
Ar 1.48672 1.62846 10.4676 0.112158 0.733567 -0.232913 
Ar 2.43607 2.32174 1.57258 1.00453 0.205301 0.272262 
Ar 1.64684 2.31228 2.36154 0.744642 0.145847 0.557463 
Ar 2.40862 1.49414 2.30929 0.9007 -0.565636 -0.0206524 
Ar 1.54563 1.54756 1.61431 0.204364 -0.231852 0.19344 
32
comment
Ar 0.665772 0.710221 0.0153839 -1.60263 -0.693791 -1.34553 
Ar 0.00387091 0.851111 0.729319 0.49692 -0.00801949 -0.535795 
Ar 0.636771 0.0016386 0.853482 -0.678852 -0.771158 0.112046 
Ar 0.0868901 10.2653 10.3011 0.87779 -2.23405 -1.98256 
Ar 0.874372 0.742474 1.61131 1.16189 0.544305 1.02907 
Ar 0.0242592 0.774292 2.34193 0.05403 0.219635 0.482028 
Ar 0.810722 0.00566764 2.54066 0.330134 0.0318934 1.61995 
Ar 10.5167 0.152089 1.54839 0.0960328 0.513144 0.453739 
Ar 0.662508 2.27701 0.0745779 -0.700761 0.475894 -0.316826 
Ar 0.00134905 2.36567 0.931379 -0.618168 0.858779 1.00867 
Ar 0.785007 1.52935 0.726268 0.529203 0.131272 0.228175 
Ar 10.5164 1.51009 10.5166 -0.0860291 -0.280379 0.244453 
Ar 0.789109 2.26547 1.59983 -0.491446 0.904068 1.16767 
Ar 0.047984 2.26971 2.44322 0.0489234 -0.127558 0.895005 
Ar 0.789214 1.50797 2.35083 0.732913 -1.25583 1.30507 
Ar 0.0967189 1.43424 1.49254 -0.387851 -1.21046 0.816169 
Ar 2.26532 0.756942 10.5131 -0.229722 0.440624 -0.116316 
Ar 1.45787 0.789656 0.62881 1.10804 -0.487074 -0.113572 
Ar 2.32811 0.039447 0.742766 0.161845 0.00383864 -0.39945 
Ar 1.54255 10.4802 10.4748 -0.479889 -0.0489016 -0.362722 
Ar 2.16844 0.817729 1.4363 0.339991 0.604296 -1.2337 
Ar 1.68107 0.650403 2.43789 0.711789 -0.43005 1.71072 
Ar 2.59995 10.3703 2.41085 2.13801 -1.4406 0.562687 
Ar 1.60961 10.5085 1.53962 -0.219977 -1.49286 -0.206604 
Ar 2.35139 2.43595 0.110404 0.16102 1.13133 0.895288 
Ar 1.50519 2.38104 0.887116 0.501906 0.710646 0.0328952 
Ar 2.29189 1.60609 0.787801 -0.383191 0.175333 -0.113351 
Ar 1.48848 1.63572 10.4654 0.239832 0.711729 -0.201865 
Ar 2.44595 2.32385 1.57532 0.968982 0.213409 0.274386 
Ar 1.65412 2.31376 2.36712 0.712091 0.1461 0.556249 
Ar 2.41759 1.48842 2.30904 0.888641 -0.574974 -0.0315239 
Ar 1.54768 1.54584 1.616 0.20298 -0.109903 0.145166 
32
comment
Ar 0.649695 0.703073 0.000357478 -1.57379 -0.732695 -1.61789 
Ar 0.00754138 0.850421 0.72404 0.257512 -0.153243 -0.520607 
Ar 0.630221 10.5137 0.854639 -0.620674 -0.780849 0.129121 
Ar 0.095813 10.2429 10.2811 0.908448 -2.24888 -2.01601 
Ar 0.886184 0.747219 1.62133 1.19372 0.391498 0.970014 
Ar 0.0246112 0.776244 2.34683 0.0142179 0.162033 0.504444 
Ar 0.813943 0.0060542 2.55675 0.313079 0.0471629 1.59778 
Ar 10.5177 0.156579 1.55238 0.113881 0.376927 0.336266 
Ar 0.655555 2.28256 0.0706893 -0.697391 0.621321 -0.437822 
Ar 10.5148 2.37427 0.941229 -0.625175 0.853547 0.96117 
Ar 0.790752 1.53116 0.729197 0.618302 0.212397 0.365943 
Ar 10.5165 1.50793 10.5199 0.0999538 -0.147749 0.417477 
Ar 0.783452 2.2749 1.61188 -0.6173 0.961202 1.22993 
Ar 0.0483335 2.26846 2.4521 0.0283109 -0.127652 0.87812 
Ar 0.796957 1.49541 2.36451 0.813226 -1.23999 1.41851 
Ar 0.0923555 1.42312 1.50189 -0.478428 -1.00137 1.03865 
Ar 2.2634 0.76188 10.5126 -0.141307 0.546202 0.0227335 
Ar 1.47013 0.78418 0.628056 1.3103 -0.591128 -0.0493394 
Ar 2.32971 0.039325 0.73855 0.157479 -0.0294526 -0.444346 
Ar 1.53741 10.4799 10.4712 -0.545155 -0.00711865 -0.364035 
Ar 2.17244 0.822746 1.42464 0.459186 0.391395 -1.07853 
Ar 1.68815 0.646426 2.45476 0.702245 -0.364882 1.66001 
Ar 2.6211 10.3557 2.41632 2.09268 -1.47336 0.533496 
Ar 1.60692 10.4945 1.53779 -0.311416 -1.345 -0.160631 
Ar 2.35292 2.4474 0.11935 0.145575 1.15759 0.893416 
Ar 1.51067 2.38817 0.886982 0.588549 0.711973 -0.053262 
Ar 2.28799 1.60808 0.78615 -0.39664 0.218494 -0.211857 
Ar 1.49147 1.64274 10.4636 0.358067 0.689378 -0.178739 
Ar 2.45545 2.326 1.57806 0.930211 0.214667 0.274076 
Ar 1.6611 2.3152 2.37266 0.681937 0.138464 0.549354 
Ar 2.4264 1.48262 2.30865 0.870882 -0.581098 -0.0466602 
Ar 1.5497 1.54557 1.61728 0.198354 0.0558512 0.10999 
32
comment
Ar 0.634296 0.695567 10.503 -1.47073 -0.7532 -1.64027 
Ar 0.00979172 0.84787 0.718038 0.198786 -0.351153 -0.682557 
Ar 0.62437 10.506 0.856039 -0.548934 -0.768637 0.154251 
Ar 0.105042 10.2204 10.2608 0.938879 -2.26263 -2.04459 
Ar 0.898251 0.750304 1.63074 1.2106 0.217222 0.90796 
Ar 0.0245494 0.777532 2.35202 -0.0278147 0.0877778 0.540327 
Ar 0.816985 0.00660932 2.57262 0.294672 0.0655631 1.57468 
Ar 10.5189 0.159739 1.55519 0.123754 0.249922 0.218853 
Ar 0.648561 2.28948 0.0658232 -0.699276 0.748366 -0.522405 
Ar 10.5089 2.38275 0.95061 -0.569138 0.828633 0.905894 
Ar 0.797351 1.5337 0.733458 0.699685 0.280904 0.493546 
Ar 10.5184 1.50718 0.00489804 0.253572 -0.0536105 0.417201 
Ar 0.776764 2.2847 1.62444 -0.699777 0.984901 1.27021 
Ar 0.0485173 2.26715 2.46082 0.0148914 -0.139184 0.864076 
Ar 0.805477 1.48322 2.37925 0.888955 -1.18637 1.51968 
Ar 0.0872453 1.41417 1.51338 -0.537213 -0.777308 1.2417 
Ar 2.2625 0.767866 10.5136 -0.0203494 0.650749 0.187343 
Ar 1.48364 0.777756 0.627469 1.36642 -0.676006 -0.0736152 
Ar 2.33129 0.0388337 0.733886 0.159719 -0.0699741 -0.489328 
Ar 1.53165 10.4801 10.4676 -0.604115 0.0321316 -0.361601 
Ar 2.17768 0.825536 1.41477 0.590177 0.162557 -0.883029 
Ar 1.69515 0.643108 2.47109 0.695521 -0.298895 1.60288 
Ar 2.6418 10.3408 2.42152 2.0487 -1.5052 0.506854 
Ar 1.60348 10.4816 1.5364 -0.370457 -1.24809 -0.118943 
Ar 2.3543 2.4591 0.128273 0.133726 1.18383 0.890222 
Ar 1.51686 2.39528 0.886162 0.640629 0.707824 -0.104744 
Ar 2.28398 1.61062 0.783454 -0.403908 0.284385 -0.320523 
Ar 1.49558 1.64954 10.4619 0.461898 0.668268 -0.163858 
Ar 2.46455 2.32814 1.58079 0.888313 0.209507 0.271136 
Ar 1.66777 2.31653 2.37811 0.653437 0.124633 0.53757 
Ar 2.435 1.47678 2.3081 0.847835 -0.584101 -0.0656488 
Ar 1.55166 1.54717 1.61827 0.189213 0.259451 0.0869428 
32
comment
Ar 0.620281 0.688009 10.4876 -1.27874 -0.811469 -1.46519 
Ar 0.0115171 0.843398 0.710388 0.155159 -0.607294 -0.777591 
Ar 0.619258 10.4984 0.85773 -0.399864 -0.74206 0.101073 
Ar 0.114576 10.1977 10.2402 0.96905 -2.27793 -2.07308 
Ar 0.910397 0.751563 1.63949 1.22088 0.0395189 0.838796 
Ar 0.0240619 0.777999 2.35763 -0.0673123 0.0578654 0.667912 
Ar 0.819838 0.00736357 2.58825 0.269117 0.0881626 1.54238 
Ar 0.000163099 0.161683 1.55682 0.122698 0.135194 0.102557 
Ar 0.641569 2.29752 0.0602416 -0.644214 0.910377 -0.577243 
Ar 10.5034 2.39084 0.959348 -0.521945 0.787058 0.841009 
Ar 0.804703 1.53687 0.738975 0.779062 0.337124 0.624436 
Ar 0.00152235 1.50688 0.00827915 0.250085 -0.0167394 0.249454 
Ar 0.769452 2.29459 1.63728 -0.745611 0.981573 1.288 
Ar 0.0485921 2.26567 2.46942 0.00574096 -0.160975 0.853442 
Ar 0.814718 1.47171 2.39493 0.957928 -1.10983 1.60659 
Ar 0.0816959 1.4074 1.52674 -0.56657 -0.565656 1.41248 
Ar 2.26299 0.774896 10.5164 0.12473 0.755965 0.372435 
Ar 1.49745 0.770636 0.626578 1.37147 -0.73191 -0.110166 
Ar 2.33293 0.0378979 0.728769 0.167546 -0.118166 -0.53514 
Ar 1.52533 10.4806 10.464 -0.657692 0.0689682 -0.356026 
Ar 2.18429 0.825973 1.40702 0.73509 -0.0736143 -0.659071 
Ar 1.70208 0.640447 2.48682 0.68816 -0.233736 1.54133 
Ar 2.66207 10.3256 2.42646 2.00622 -1.53602 0.482417 
Ar 1.59955 10.4695 1.53539 -0.41306 -1.18511 -0.0847 
Ar 2.35559 2.47107 0.137154 0.125723 1.21042 0.884346 
Ar 1.5234 2.40232 0.88497 0.660932 0.699072 -0.128636 
Ar 2.27992 1.61388 0.779655 -0.408983 0.359254 -0.430205 
Ar 1.5006 1.65614 10.4603 0.538364 0.64859 -0.159239 
Ar 2.47322 2.33019 1.58348 0.843447 0.198378 0.265429 
Ar 1.67417 2.3177 2.38341 0.626416 0.106198 0.522254 
Ar 2.44335 1.47093 2.30733 0.819939 -0.584104 -0.0880065 
Ar 1.55349 1.55095 1.61907 0.172394 0.490289 0.0734391 
32
comment
Ar 0.608721 0.679337 10.4737 -1.02807 -0.92234 -1.30562 
Ar 0.0128949 0.835724 0.702486 0.13103 -0.904555 -0.780879 
Ar 0.616399 10.4912 0.85807 -0.172891 -0.695585 -0.0325244 
Ar 0.124411 10.1749 10.2193 0.999022 -2.29507 -2.10115 
Ar 0.92267 0.751094 1.64752 1.22304 -0.132917 0.76602 
Ar 0.0232104 0.778689 2.36537 -0.102179 0.0675112 0.880315 
Ar 0.822369 0.00837072 2.60347 0.237309 0.11479 1.50118 
Ar 0.00141976 0.162553 1.55733 0.128067 0.0372503 -0.000927277 
Ar 0.635677 2.30769 0.054278 -0.53491 1.10613 -0.604711 
Ar 10.4984 2.39849 0.967429 -0.481896 0.739663 0.774646 
Ar 0.812881 1.54053 0.745851 0.851602 0.382747 0.7497 
Ar 0.00350915 1.5069 0.00994038 0.145533 0.0190993 0.081879 
Ar 0.761853 2.30434 1.6502 -0.760378 0.959887 1.28791 
Ar 0.0485868 2.26393 2.47795 -0.00170849 -0.19058 0.847933 
Ar 0.824628 1.46106 2.41141 1.02276 -1.01775 1.68062 
Ar 0.0759919 1.40272 1.54161 -0.56982 -0.369682 1.52769 
Ar 2.26499 0.782985 0.00103243 0.283648 0.856585 0.37224 
Ar 1.51016 0.76308 0.62601 1.15417 -0.766801 -0.00774082 
Ar 2.33472 0.0360883 0.723528 0.188962 -0.246265 -0.512365 
Ar 1.51851 10.4815 10.4605 -0.704317 0.105044 -0.345186 
Ar 2.19244 0.824035 1.40155 0.896748 -0.306707 -0.437531 
Ar 1.70893 0.638432 2.50193 0.680866 -0.169983 1.47801 
Ar 2.68193 10.3101 2.43117 1.96559 -1.56577 0.459758 
Ar 1.5953 10.4579 1.53467 -0.435291 -1.14364 -0.0606884 
Ar 2.35682 2.48329 0.145957 0.122594 1.23318 0.873998 
Ar 1.53002 2.40926 0.883654 0.6569 0.688186 -0.130476 
Ar 2.2758 1.61784 0.774775 -0.413572 0.422121 -0.535109 
Ar 1.5063 1.66255 10.4587 0.598427 0.632019 -0.164834 
Ar 2.48143 2.3321 1.58609 0.795971 0.181397 0.256439 
Ar 1.68031 2.31866 2.38855 0.60107 0.0850125 0.505046 
Ar 2.4514 1.46509 2.30633 0.787983 -0.581196 -0.113464 
Ar 1.55512 1.55714 1.61978 0.147912 0.737879 0.0675272 
32
comment
Ar 0.599719 0.669562 10.4614 -0.773403 -1.02915 -1.15301 
Ar 0.0141377 0.825307 0.694771 0.127397 -1.15359 -0.735526 
Ar 0.615839 10.4845 0.857092 0.058517 -0.645447 -0.162997 
Ar 0.134547 10.1518 10.1982 1.02899 -2.31239 -2.12703 
Ar 0.934859 0.748904 1.65481 1.20729 -0.298447 0.693915 
Ar 0.022025 0.779349 2.37523 -0.133046 0.0513865 1.08873 
Ar 0.824586 0.00965722 2.61828 0.20668 0.143946 1.45968 
Ar 0.00275924 0.162536 1.55691 0.139449 -0.0407623 -0.0834591 
Ar 0.630871 2.31965 0.048147 -0.429397 1.26809 -0.612377 
Ar 10.4938 2.40564 0.974838 -0.447582 0.68861 0.707018 
Ar 0.82168 1.54458 0.753886 0.900586 0.418461 0.854412 
Ar 0.0045344 1.50734 0.00996871 0.0584209 0.0688371 -0.0768468 
Ar 0.754245 2.31379 1.66304 -0.750416 0.925548 1.2727 
Ar 0.0485066 2.26186 2.48644 -0.00956694 -0.226609 0.848477 
Ar 0.835167 1.45137 2.42856 1.08317 -0.919954 1.73966 
Ar 0.0703611 1.39981 1.55723 -0.552429 -0.209082 1.56368 
Ar 2.26866 0.792028 0.0037991 0.44939 0.950032 0.183185 
Ar 1.52054 0.755272 0.626414 0.908295 -0.78508 0.0868434 
Ar 2.33675 0.0329665 0.71849 0.216548 -0.378825 -0.495361 
Ar 1.51126 10.4827 10.4572 -0.743953 0.141069 -0.330928 
Ar 2.20229 0.819807 1.39831 1.05615 -0.50833 -0.213295 
Ar 1.71572 0.637043 2.5164 0.672915 -0.10852 1.41447 
Ar 2.70138 10.2943 2.43566 1.92699 -1.59431 0.438871 
Ar 1.59091 10.4467 1.53414 -0.441048 -1.11358 -0.0444033 
Ar 2.35804 2.49574 0.154634 0.125589 1.25833 0.858423 
Ar 1.5365 2.4161 0.882415 0.631978 0.679151 -0.114191 
Ar 2.27164 1.62236 0.768954 -0.41915 0.468261 -0.617754 
Ar 1.51252 1.66881 10.457 0.64204 0.618568 -0.177616 
Ar 2.48914 2.33381 1.5886 0.746247 0.159862 0.24488 
Ar 1.6862 2.3194 2.39351 0.577416 0.0628784 0.487724 
Ar 2.45912 1.4593 2.30506 0.752635 -0.575239 -0.14089 
Ar 1.55654 1.56576 1.62044 0.135584 0.963561 0.0622907 
32
comment
Ar 0.593253 0.658754 10.4507 -0.524804 -1.12588 -1.00338 
Ar 0.0154428 0.812652 0.687776 0.141391 -1.35855 -0.644851 
Ar 0.617621 10.4784 0.854826 0.295081 -0.588521 -0.290673 
Ar 0.144983 10.1286 10.1768 1.05894 -2.33005 -2.15055 
Ar 0.946817 0.745124 1.6614 1.18034 -0.446011 0.627335 
Ar 0.0205551 0.779716 2.38714 -0.158016 0.0111385 1.28575 
Ar 0.826505 0.0112469 2.63267 0.177828 0.175359 1.41807 
Ar 0.00423573 0.161835 1.55578 0.155596 -0.0988296 -0.140223 
Ar 0.627089 2.33305 0.04203 -0.331647 1.39618 -0.603853 
Ar 10.4895 2.41226 0.981566 -0.418241 0.635457 0.638738 
Ar 0.830844 1.54894 0.762872 0.924459 0.446497 0.938422 
Ar 0.00478321 1.50838 0.00844962 -0.00934146 0.137168 -0.227512 
Ar 0.746846 2.32286 1.67566 -0.720995 0.882925 1.2448 
Ar 0.0483388 2.25939 2.49498 -0.0193866 -0.267956 0.855711 
Ar 0.846285 1.44266 2.44621 1.13833 -0.824395 1.78157 
Ar 0.0649956 1.39835 1.57289 -0.517296 -0.0758716 1.54096 
Ar 2.27398 0.801986 0.00469627 0.614941 1.0374 -0.00039534 
Ar 1.52833 0.747353 0.627741 0.643951 -0.79111 0.180293 
Ar 2.33909 0.0285188 0.713579 0.248431 -0.509221 -0.48756 
Ar 1.50364 10.4843 10.4539 -0.776554 0.178172 -0.313387 
Ar 2.21362 0.813829 1.3973 1.1874 -0.648893 0.00604986 
Ar 1.72241 0.636256 2.53023 0.663941 -0.0500597 1.35147 
Ar 2.72047 10.2782 2.43995 1.89046 -1.62161 0.419527 
Ar 1.58654 10.4357 1.53375 -0.431979 -1.08858 -0.0355828 
Ar 2.35933 2.50845 0.163126 0.135529 1.28639 0.83683 
Ar 1.54264 2.42286 0.881412 0.589336 0.673895 -0.0835332 
Ar 2.26741 1.62722 0.762446 -0.426289 0.489811 -0.67295 
Ar 1.51909 1.67495 10.4551 0.669396 0.608169 -0.195798 
Ar 2.49635 2.33529 1.59098 0.694541 0.134487 0.230908 
Ar 1.69187 2.31991 2.3983 0.555521 0.0413713 0.471894 
Ar 2.46646 1.45358 2.30351 0.714532 -0.566153 -0.169543 
Ar 1.55797 1.57637 1.62103 0.150115 1.13539 0.0515757 
32
comment
Ar 0.589223 0.647044 10.4414 -0.288079 -1.20776 -0.85511 
Ar 0.0169655 0.798136 0.681874 0.168828 -1.53151 -0.524202 
Ar 0.621806 10.4728 0.851299 0.538598 -0.522257 -0.415991 
Ar 0.15572 10.1052 10.1552 1.08884 -2.34813 -2.1716 
Ar 0.958467 0.739982 1.66736 1.14865 -0.56777 0.569403 
Ar 0.018869 0.779571 2.40095 -0.175495 -0.0475228 1.46514 
Ar 0.828147 0.0131609 2.64664 0.151295 0.208731 1.37648 
Ar 0.00589173 0.16064 1.55422 0.175403 -0.139356 -0.169338 
Ar 0.624239 2.34757 0.0360695 -0.243491 1.4929 -0.582937 
Ar 10.4854 2.41835 0.987609 -0.393546 0.581243 0.570591 
Ar 0.84013 1.55354 0.772604 0.925557 0.468014 1.00237 
Ar 0.00444794 1.5102 0.00545646 -0.0583736 0.226046 -0.371716 
Ar 0.739826 2.33146 1.68795 -0.67613 0.835121 1.2061 
Ar 0.048058 2.25649 2.50363 -0.0321015 -0.313757 0.869854 
Ar 0.857927 1.43488 2.46418 1.18729 -0.736515 1.80495 
Ar 0.0600565 1.39811 1.58811 -0.467772 0.035717 1.48065 
Ar 2.28096 0.812776 0.00379133 0.781808 1.11472 -0.176773 
Ar 1.53342 0.739426 0.630017 0.3712 -0.788796 0.27979 
Ar 2.34175 0.0228009 0.708691 0.281968 -0.630455 -0.490202 
Ar 1.49574 10.4863 10.4509 -0.801743 0.217856 -0.292622 
Ar 2.22608 0.806783 1.39843 1.28325 -0.727043 0.209303 
Ar 1.72902 0.636035 2.54344 0.653803 0.0048095 1.28947 
Ar 2.73919 10.2619 2.44405 1.85602 -1.64768 0.40153 
Ar 1.58234 10.425 1.5334 -0.409002 -1.06392 -0.0338752 
Ar 2.36075 2.52146 0.17137 0.152933 1.3174 0.809018 
Ar 1.54827 2.4296 0.880777 0.531522 0.673745 -0.0414584 
Ar 2.2631 1.63215 0.755531 -0.434705 0.485034 -0.700205 
Ar 1.52586 1.68099 10.4531 0.680802 0.600716 -0.217337 
Ar 2.50304 2.3365 1.59321 0.641117 0.105965 0.214715 
Ar 1.69732 2.32022 2.40295 0.53546 0.0218181 0.459006 
Ar 2.47341 1.44798 2.30167 0.674329 -0.553769 -0.198584 
Ar 1.55965 1.58843 1.6215 0.182624 1.25269 0.0386458 
