32
comment
Ar 5.94906 3.78193 2.15876 2.5141 31.1858 19.1509 
Ar 2.24259 5.07447 5.89145 30.5734 5.50691 -13.5018 
Ar 4.98425 6.50759 4.22963 -2.68175 -13.9418 -18.3261 
Ar 4.91435 1.56986 5.24699 10.9784 14.446 7.37895 
Ar 3.67022 2.53689 1.96046 -19.9727 4.71578 12.9855 
Ar 0.9174 4.84717 0.810251 16.4953 11.8469 17.6874 
Ar 0.963502 4.46901 4.18845 -4.42181 15.9168 25.9227 
Ar 6.7641 3.95849 5.89186 -5.70787 18.6819 5.39682 
Ar 1.10357 1.49927 3.01141 -12.9473 5.04618 9.28242 
Ar 5.29241 1.90148 1.26222 -5.73645 -5.70878 11.645 
Ar 0.382931 6.77924 6.2107 -13.3214 -8.28022 23.8006 
Ar 2.78659 2.76697 1.48591 23.0839 11.1264 6.72187 
Ar 4.76717 1.4972 0.440373 5.42606 11.2751 24.3133 
Ar 6.72886 0.0462745 5.55111 3.77257 3.45612 8.18528 
Ar 4.8848 1.27705 6.03619 -6.55184 21.5024 12.4446 
Ar 2.35721 5.16426 5.30996 5.04675 25.7967 -2.08839 
Ar 5.27701 3.78236 2.35038 27.994 -11.186 0.343272 
Ar 5.78407 6.17423 0.865479 10.1794 -8.90266 13.9711 
Ar 4.67859 5.64675 3.86224 29.7073 -5.65933 24.567 
Ar 2.63221 3.5181 5.61155 10.6552 25.7103 14.0953 
Ar 4.07021 0.209365 4.22702 16.6074 -16.7164 19.2547 
Ar 3.75343 2.99905 4.66336 5.48277 -11.0981 -4.1874 
Ar 1.18426 6.17312 0.217597 -10.2783 -13.0012 -10.2075 
Ar 5.86708 5.84639 2.583 6.78105 20.4018 34.5738 
Ar 5.99231 2.89098 2.28948 22.6123 20.0834 8.51682 
Ar 4.2717 1.54372 4.35552 2.62859 18.6277 -19.889 
Ar 5.32011 4.69553 4.68609 23.702 7.63181 26.7976 
Ar 6.70417 5.0683 4.90295 19.6464 14.3261 6.88875 
Ar 5.29887 0.431268 1.7513 18.125 12.8098 8.95835 
Ar 2.78126 4.60471 2.0575 -5.7074 9.83094 -1.23899 
Ar 5.40472 3.33849 6.14706 35.0539 -6.48639 -21.1521 
Ar 0.650472 5.89173 5.42831 11.2341 5.67988 17.5579 
