32
comment
Ar 1.84705 1.73104 0.729231 -37.2511 5.35207 24.5229 
Ar 1.71425 2.87899 1.07805 31.0157 5.84518 -19.6141 
Ar 4.551 1.45231 2.88895 -20.0556 -3.47523 -8.09222 
Ar 2.218 1.39769 6.76608 5.48356 0.399903 12.3308 
Ar 2.2247 1.91156 4.0211 -11.8023 5.03154 9.7829 
Ar 0.0682684 3.97601 4.88893 -3.80582 -3.4403 23.0474 
Ar 3.01688 4.1383 6.01853 -4.63441 15.6703 26.9746 
Ar 1.90025 2.65368 3.94949 -1.8895 13.5422 4.61051 
Ar 4.27624 2.76938 2.75323 -32.022 6.50826 9.28196 
Ar 4.68414 2.04498 0.404105 0.865023 24.6868 14.2528 
Ar 3.54984 4.91735 1.52353 -6.27906 11.6006 17.1973 
Ar 1.62748 4.30298 0.108694 6.05769 14.345 -4.45082 
Ar 0.435558 2.04832 5.46387 10.4403 14.4947 18.1094 
Ar 0.246993 2.7955 3.40676 0.913448 16.5442 25.7304 
Ar 2.32845 5.69438 1.64443 -10.0155 19.3167 -8.27539 
Ar 0.837809 0.0794504 3.03145 6.9152 26.1015 2.24272 
Ar 6.49095 0.299076 2.25138 27.5907 -23.7982 0.0925546 
Ar 1.40447 3.7864 0.902482 7.5961 -11.5084 18.5203 
Ar 5.46845 0.953468 0.86286 29.6322 1.13366 15.9715 
Ar 4.7389 3.09747 5.87322 9.13994 9.98877 -7.04566 
Ar 1.16005 1.32118 5.2582 24.127 -17.3073 11.0622 
Ar 6.19407 1.53324 5.43431 18.9042 -13.9266 3.90492 
Ar 1.568 1.15486 6.37333 9.40764 4.14022 2.57356 
Ar 3.45492 2.54018 3.14916 5.99408 9.32685 3.43277 
Ar 3.35518 4.75601 0.504859 22.9916 26.6708 3.27787 
Ar 3.50533 4.0335 3.41952 18.6213 25.4812 -12.624 
Ar 6.53386 2.06476 0.688317 8.53021 2.56711 12.1185 
Ar 5.06797 5.66873 1.89583 10.6009 11.7598 4.83768 
Ar 3.20033 0.90851 0.331847 21.4464 13.5742 -1.90194 
Ar 4.9829 0.374456 1.46474 -12.2468 5.48592 19.6481 
Ar 4.0879 0.315474 1.77465 32.6161 -8.73745 -15.2349 
Ar 2.39561 3.37058 4.35369 9.84233 4.25508 16.593 
