32
comment
Ar 1.94489 2.93999 2.83627 -29.9455 -20.1619 18.7648 
Ar 3.38959 4.43641 4.22483 23.4712 -13.3538 -15.2291 
Ar 2.23703 1.03537 4.43867 -29.4185 9.40027 -8.76653 
Ar 1.04894 0.682508 6.72157 6.63094 4.10433 -0.644063 
Ar 5.21282 6.11835 2.44433 -15.0359 13.9792 7.28063 
Ar 0.643086 4.41406 6.74361 3.58475 -15.0467 26.1344 
Ar 4.05695 1.0709 0.657207 -13.878 8.11697 28.29 
Ar 0.955854 1.45923 2.60595 4.70122 6.96829 8.19925 
Ar 3.67005 0.548728 0.966809 -24.5499 24.8699 2.79235 
Ar 5.96585 5.92443 5.91599 -3.6306 16.0189 -1.37877 
Ar 4.80589 2.60682 4.91836 -6.28571 11.6097 17.0756 
Ar 0.841485 3.15935 0.37321 2.90466 11.8399 -0.224464 
Ar 6.20249 5.8265 2.77556 2.10943 16.6637 12.5724 
Ar 6.65522 5.30691 5.67255 -0.526153 19.2249 21.265 
Ar 4.58459 2.57858 3.92058 -12.8278 11.1552 -15.6145 
Ar 6.67288 3.19735 2.18073 -0.753905 11.9376 6.59246 
Ar 0.683616 4.40577 1.62742 31.229 -16.2186 7.26247 
Ar 4.48354 5.58487 6.76691 20.2045 -9.04854 3.10976 
Ar 5.99623 6.36864 5.55218 27.6002 -0.869988 3.53617 
Ar 2.91264 1.17294 0.350307 10.0663 5.80208 1.02756 
Ar 5.4699 4.5755 2.60912 12.8522 -20.7832 9.80223 
Ar 2.39743 4.31202 4.66303 18.939 -13.865 3.83129 
Ar 5.64324 0.0150201 5.35346 13.7734 5.66187 5.14025 
Ar 2.20922 1.17626 2.08145 6.2059 5.62089 6.21622 
Ar 5.57579 6.24705 6.69604 23.4321 24.9588 -0.825717 
Ar 1.68761 5.68157 5.09093 0.0753294 23.9598 1.97073 
Ar 4.80419 1.54048 5.07194 10.307 2.51413 8.49778 
Ar 2.92671 3.29531 0.924078 10.7844 11.9365 4.81191 
Ar 5.72549 4.94931 0.738282 21.4183 14.4852 -2.32249 
Ar 0.499115 5.01288 5.04205 -11.5697 11.316 15.9809 
Ar 5.07853 1.52627 4.43053 19.9703 -0.288146 -5.29218 
Ar 0.990361 2.8552 1.91151 0.626462 10.2723 6.5695 
