32
comment
Ar 2.84284 3.54467 2.27287 -29.9267 -20.1512 18.7903 
Ar 2.70212 4.8392 4.67939 21.3221 -13.6592 -15.221 
Ar 3.11966 0.753413 4.70163 -29.4319 9.39254 -8.76523 
Ar 0.850133 0.559441 6.74082 6.62251 4.09973 -0.639056 
Ar 5.58768 5.75006 2.19651 -7.88166 4.42744 11.5156 
Ar 0.535693 4.86514 5.95888 3.5677 -15.0343 26.186 
Ar 4.52914 0.905299 6.57154 -15.7546 5.45786 29.9072 
Ar 0.81568 1.25052 2.35947 4.64188 6.94515 8.23552 
Ar 4.34569 6.51319 0.936956 -22.4292 28.6221 0.836013 
Ar 6.09046 5.32765 6.03538 -4.46507 20.784 -4.54738 
Ar 5.03935 2.28476 4.58201 -9.83322 9.17874 4.31204 
Ar 0.754463 2.80412 0.380537 2.89425 11.8446 -0.268139 
Ar 6.18194 5.30439 2.41269 -2.58251 19.351 11.1508 
Ar 6.68871 4.72913 5.04288 -1.2853 19.2171 20.8357 
Ar 4.94682 2.25556 4.24018 -12.3137 8.81074 -3.36351 
Ar 6.69432 2.8392 1.98262 -0.683052 11.9428 6.6136 
Ar 6.55683 4.89206 1.40951 31.2354 -16.2124 7.25353 
Ar 3.87641 5.85631 6.67318 20.3464 -9.05538 3.14365 
Ar 5.24874 6.50518 5.42772 23.2361 -1.80367 1.5907 
Ar 2.61178 0.998573 0.320094 10.0112 5.81425 0.994946 
Ar 5.08242 5.19288 2.31575 15.0617 -17.0415 9.6346 
Ar 1.83628 4.69796 4.52718 17.1712 -9.53821 8.43007 
Ar 5.13496 6.75395 5.13206 21.5169 -2.00031 11.2448 
Ar 2.02238 1.00795 1.89512 6.25297 5.59891 6.20533 
Ar 4.89547 5.50706 6.73107 19.5949 24.9241 -1.16105 
Ar 1.67676 4.97743 5.04321 2.4302 20.5774 -1.39601 
Ar 4.40108 1.45856 5.07208 15.8629 3.32435 -9.06969 
Ar 2.60304 2.93712 0.779829 10.7953 11.943 4.8019 
Ar 5.08284 4.51476 0.808253 21.4249 14.4819 -2.34495 
Ar 0.847084 4.67366 4.56287 -11.6215 11.3092 15.9662 
Ar 4.55214 1.51346 4.33129 16.9565 2.28978 11.9754 
Ar 0.972016 2.54693 1.71456 0.60457 10.2852 6.57158 
