32
comment
Ar 1.45077 5.19962 6.37715 -18.6003 28.7028 4.96459 
Ar 3.0657 4.15205 2.76945 31.3485 4.67298 -19.6658 
Ar 6.78031 0.496694 6.70151 -15.8157 -3.78522 -14.0478 
Ar 4.4379 1.85261 3.5946 2.95554 5.59663 8.35855 
Ar 6.31798 2.25483 6.59887 -10.6951 0.443165 9.05119 
Ar 5.85348 3.05699 4.04301 -4.05034 -3.61004 22.862 
Ar 1.81853 1.4476 6.08092 -4.6446 15.8907 25.8191 
Ar 1.03392 0.413685 4.86618 -4.27665 18.2362 4.47686 
Ar 4.11775 6.62109 2.16769 -26.6601 15.7142 -3.2996 
Ar 4.95271 1.59884 4.15141 7.52716 19.392 20.5466 
Ar 2.60823 0.743645 0.776884 -3.50122 -0.923559 32.6117 
Ar 5.21808 0.704458 0.230067 22.9055 10.2969 6.37706 
Ar 3.14729 5.80652 3.36341 10.4069 14.3875 18.1378 
Ar 0.0410478 6.16472 3.3855 -5.80005 7.88119 17.8528 
Ar 6.57825 3.97449 6.42742 -9.72942 20.7069 -5.94899 
Ar 1.72108 0.133907 4.36685 2.81675 26.7315 5.55388 
Ar 6.77995 0.800413 2.35925 27.1206 -24.5153 0.611185 
Ar 3.84031 1.04908 5.02491 10.2133 -8.89699 14.0272 
Ar 5.99342 0.126688 6.10973 28.5096 -10.4085 23.4159 
Ar 0.404618 6.35589 3.88222 13.8965 16.2291 2.58874 
Ar 0.595729 3.60473 1.22737 23.9424 -17.4854 10.6562 
Ar 2.69274 5.1066 5.46431 5.64708 -11.0976 -4.23246 
Ar 2.84826 1.6531 0.761392 -5.32 -4.38709 7.02746 
Ar 4.08786 2.44079 2.70307 12.7719 5.2251 40.1338 
Ar 2.00293 4.86442 1.39009 20.4168 26.7486 3.70096 
Ar 1.35751 3.81865 0.0904539 17.5341 25.2267 -12.811 
Ar 2.29745 3.31304 2.06862 10.0508 5.20313 4.16317 
Ar 2.87572 2.35042 3.5726 21.621 14.2656 7.4589 
Ar 1.8575 4.80757 0.049991 18.1001 12.7954 8.86077 
Ar 2.85357 1.67468 0.485009 -4.45009 8.18369 22.4459 
Ar 5.5634 4.56182 3.36754 34.7678 -6.25201 -21.4266 
Ar 5.3254 4.81474 2.10257 11.354 5.58747 17.5554 
