32
comment
Ar 0.730196 1.89227 1.46461 -37.2118 5.38407 24.5047 
Ar 2.6547 3.03738 0.487456 31.478 5.08448 -19.7347 
Ar 3.94906 1.34861 2.64581 -20.0598 -3.45273 -8.11721 
Ar 2.47536 1.44438 0.381845 8.60521 1.56277 14.2015 
Ar 1.91131 1.96414 4.32519 -10.37 1.48574 10.1837 
Ar 6.76411 3.87256 5.5802 -3.81285 -3.4603 23.0342 
Ar 2.87749 4.60863 0.016859 -4.65784 15.6819 26.9283 
Ar 1.80305 3.17358 4.05474 -3.32827 17.6201 3.42475 
Ar 3.43159 3.0313 2.92476 -25.7655 12.5451 0.0170811 
Ar 4.71022 2.78516 0.831864 0.866571 24.6651 14.2601 
Ar 3.36155 5.2657 2.04036 -6.26769 11.6094 17.2204 
Ar 1.81068 4.73601 6.78092 6.08849 14.4261 -4.58161 
Ar 0.74834 2.48373 6.00727 10.4411 14.5018 18.1078 
Ar 0.274771 3.29181 4.17884 0.942108 16.5413 25.7386 
Ar 2.0286 6.27337 1.39614 -9.98667 19.2897 -8.27348 
Ar 1.0453 0.86256 3.09875 6.9179 26.1073 2.24403 
Ar 0.508104 6.39525 2.25443 27.5752 -23.8012 0.110531 
Ar 1.62775 3.44766 1.45941 7.38616 -11.2023 18.5756 
Ar 6.36038 0.991842 1.33813 29.7181 1.30336 15.847 
Ar 5.01306 3.39706 5.66163 9.13907 9.98576 -7.05758 
Ar 1.88346 0.801892 5.58678 24.0999 -17.369 10.7078 
Ar 6.76043 1.11594 5.55151 18.8625 -13.8966 3.90852 
Ar 1.8117 1.26903 6.49279 7.24988 3.68662 5.09225 
Ar 3.49406 2.70015 3.39162 0.148781 1.02625 13.6227 
Ar 4.04466 5.55612 0.604061 22.9705 26.6642 3.32532 
Ar 4.06383 4.79707 3.04046 18.6052 25.4461 -12.6544 
Ar 6.7895 2.14118 1.05174 9.2061 2.75005 11.7292 
Ar 5.38544 6.02052 2.0407 10.5557 11.7 4.81341 
Ar 3.84458 1.3153 0.275219 21.4555 13.5668 -1.88112 
Ar 4.73161 0.616613 2.0947 -5.79897 11.2579 23.577 
Ar 4.85927 6.76401 1.26773 23.5182 -15.2922 -20.0745 
Ar 2.72975 3.53624 4.87876 11.2305 5.57586 17.564 
