32
comment
Ar 5.73229 5.79151 0.760905 -28.2477 -23.8575 12.5401 
Ar 0.886218 6.31679 6.18363 17.7718 -14.9531 -14.9785 
Ar 5.65755 0.162581 6.11317 -22.9129 4.23528 -17.3787 
Ar 0.191003 0.151646 6.80265 6.53343 4.03184 -0.574725 
Ar 6.54396 6.32452 1.34749 -10.1849 -7.35056 6.47159 
Ar 0.189995 6.36397 3.33279 3.36467 -14.9576 26.3113 
Ar 6.16941 0.388246 3.55907 -17.078 4.85762 30.3062 
Ar 0.362985 0.563119 1.52787 4.49204 6.76928 8.38217 
Ar 6.24995 3.55796 0.508863 -18.1992 31.3504 6.36506 
Ar 6.52831 3.24918 6.48389 -4.32114 20.7754 -4.42791 
Ar 6.23844 1.43129 5.76146 -12.492 8.48233 -19.5713 
Ar 0.441633 1.62898 0.352233 4.64194 11.2599 3.17243 
Ar 6.77642 3.09653 1.45354 -5.96507 22.1527 9.54219 
Ar 0.000866976 2.8114 2.96393 -1.25788 19.1997 20.7549 
Ar 6.25556 1.35121 3.00527 -13.3825 9.81077 19.721 
Ar 6.76779 1.64388 1.3207 -1.08032 11.9364 6.54066 
Ar 3.52689 6.36133 0.543791 30.6991 -15.5575 8.60393 
Ar 1.84718 6.75991 6.35487 19.7124 -9.95047 1.94338 
Ar 3.15789 6.65808 6.31154 20.744 -2.40736 -10.9312 
Ar 1.60788 0.42048 0.227631 10.0769 5.70164 0.860068 
Ar 2.96936 6.40692 1.42949 21.4801 -11.8435 8.89614 
Ar 1.19189 6.14406 2.83933 4.53642 -16.0147 17.5019 
Ar 2.97017 0.156611 3.06593 20.795 -0.39246 23.8409 
Ar 1.3885 0.454395 1.27109 6.3309 5.44886 6.32619 
Ar 2.93599 3.0464 0.004174 20.0788 22.9749 0.668659 
Ar 1.16602 2.98562 6.3022 5.43261 20.1468 -13.9674 
Ar 2.75298 1.11865 6.34926 16.4629 3.34557 -12.7901 
Ar 1.51601 1.73872 0.302607 10.8432 12.0504 4.81533 
Ar 3.00131 2.87909 0.833535 20.3935 18.2308 0.281576 
Ar 0.997448 2.91569 2.82462 0.741221 19.3708 17.7664 
Ar 2.81242 1.10569 2.72616 17.3923 4.15215 16.0796 
Ar 0.940594 1.49509 1.11085 -1.32926 11.4678 3.00568 
