32
comment
Ar 0.629835 6.42141 6.66713 -18.6352 30.1989 8.80777 
Ar 4.31876 4.33823 1.98242 31.314 4.64608 -19.6755 
Ar 6.24937 0.472739 6.20434 -12.4496 0.47621 -11.923 
Ar 4.51841 1.83248 3.96367 3.21185 -9.78797 11.3743 
Ar 5.88994 2.27186 0.15071 -10.7037 0.390606 9.05038 
Ar 5.69353 2.91695 4.95646 -2.2548 -0.203223 22.1243 
Ar 1.63363 2.0831 0.302728 -4.59065 15.8847 25.809 
Ar 0.813945 1.15856 5.0783 -5.81753 18.6726 5.4834 
Ar 3.05459 0.437776 2.03697 -23.3476 14.3971 -3.367 
Ar 5.36686 2.29981 5.09129 8.61714 13.9185 24.2912 
Ar 2.42958 0.67953 2.07708 -9.62373 0.246623 31.7738 
Ar 6.13429 1.11671 0.485098 22.9031 10.3376 6.36827 
Ar 3.56358 6.38176 4.0887 10.4061 14.3735 18.1309 
Ar 6.74546 6.34639 3.88911 -0.468584 3.47238 11.4172 
Ar 6.18865 4.80262 6.18933 -9.74476 20.7037 -5.95386 
Ar 1.84925 1.19856 4.57889 3.35544 26.5724 5.19391 
Ar 1.05485 6.62984 2.38379 27.1301 -24.5164 0.621202 
Ar 4.24925 0.693694 5.58547 10.2295 -8.87577 14.0059 
Ar 0.233534 6.49165 0.186556 28.5544 -8.41154 23.101 
Ar 0.961225 0.194216 3.98627 13.9315 16.2163 2.61905 
Ar 1.55421 2.9054 1.65345 23.9917 -17.488 10.6516 
Ar 2.91821 4.66265 5.29476 5.6243 -11.0983 -4.23314 
Ar 2.62138 1.33684 1.14304 -6.41528 -14.6692 9.88263 
Ar 4.54972 2.88784 4.17081 12.3695 18.0606 34.8496 
Ar 2.81947 5.9335 1.53664 20.4091 26.6909 3.63099 
Ar 2.05181 4.81731 6.3925 17.1848 24.7231 -12.5552 
Ar 2.69957 3.52142 2.23503 10.042 5.20021 4.14714 
Ar 3.73641 2.92114 3.8705 20.0076 14.3229 7.01998 
Ar 2.58176 5.31966 0.405751 18.1138 12.8149 8.92944 
Ar 2.7188 2.18684 1.23392 -2.21343 20.4243 17.628 
Ar 0.149136 4.30811 2.51471 35.0057 -6.42254 -21.2324 
Ar 5.77721 5.03969 2.80307 11.2268 5.65196 17.4686 
