32
comment
Ar 5.84887 1.67087 4.75046 -33.5139 -4.64587 27.469 
Ar 5.52168 3.26572 2.8702 23.9741 -12.6616 -14.8695 
Ar 6.68494 1.66172 3.70687 -19.4069 7.18376 -5.25291 
Ar 1.64559 1.05155 6.66061 6.58898 4.10368 -0.739383 
Ar 3.86166 0.565459 3.10018 -15.0095 13.9783 7.28829 
Ar 0.589019 4.06849 2.42036 -9.25435 8.01743 21.7685 
Ar 3.53361 2.42166 3.05115 -4.75786 15.6594 26.8093 
Ar 1.40869 1.99417 3.25022 5.21622 5.37869 6.57573 
Ar 0.952847 1.7992 1.71179 -30.8706 12.3951 9.74609 
Ar 5.16446 0.312432 6.21388 -9.99434 13.9016 4.1486 
Ar 4.24173 3.64759 6.45695 -6.28883 11.5331 17.0387 
Ar 1.31475 3.44961 0.0676449 6.06158 0.500285 -4.59691 
Ar 6.38743 0.517096 3.90654 2.02054 16.7667 12.5743 
Ar 6.78987 0.405925 0.862448 3.48761 25.6818 21.3683 
Ar 3.43731 3.56498 2.55025 -10.052 16.3025 -9.79055 
Ar 6.80055 4.28733 2.66169 10.1862 13.9058 6.67077 
Ar 3.45347 2.91296 2.21641 27.5353 -22.9625 0.640311 
Ar 6.30783 4.77192 0.236917 20.2811 -9.02093 3.12492 
Ar 2.28515 0.402828 6.03319 29.1909 8.01249 13.3865 
Ar 3.73522 2.00204 6.6452 9.09279 9.85484 -6.99961 
Ar 6.45253 2.69044 3.63567 9.18518 -21.179 12.8575 
Ar 4.10605 3.06428 5.00641 19.0156 -13.8663 3.83866 
Ar 0.0705216 0.527563 5.81659 13.6949 5.7281 5.12897 
Ar 2.76704 1.68551 2.643 6.19728 5.71495 6.25981 
Ar 0.828983 1.82048 0.143491 22.932 26.6837 3.25097 
Ar 2.10201 1.12534 4.77628 10.3193 26.9192 -12.2239 
Ar 5.58883 1.77943 6.16452 8.67962 2.64397 12.1822 
Ar 3.89501 4.36813 1.35928 10.7279 11.8827 4.88627 
Ar 0.842219 6.21944 0.543974 21.4398 13.6507 -1.93919 
Ar 6.26811 6.03288 6.47765 -11.6147 11.2737 15.862 
Ar 0.473499 1.28052 3.46316 32.8208 -8.83431 -15.3729 
Ar 1.22057 3.53914 2.6785 11.5382 -2.69256 15.0504 
