32
comment
Ar 0.358098 1.94613 1.70966 -35.9343 4.28657 27.2179 
Ar 2.96945 3.08823 0.290144 31.4746 5.08453 -19.7289 
Ar 3.74852 1.31407 2.5646 -20.056 -3.45042 -8.11954 
Ar 2.56151 1.46002 0.523857 8.62068 1.56767 14.2006 
Ar 1.8076 1.97911 4.42701 -10.3715 1.50396 10.18 
Ar 6.72594 3.83791 5.81051 -3.82536 -3.47117 23.0249 
Ar 2.83094 4.76543 0.286174 -4.65349 15.6778 26.9332 
Ar 1.76982 3.34969 4.08909 -3.32091 17.6045 3.441 
Ar 3.17097 3.17245 2.9028 -26.4542 14.6717 -2.9412 
Ar 4.71886 3.03179 0.974461 0.861566 24.6619 14.2591 
Ar 3.29894 5.38177 2.2126 -6.25204 11.6032 17.2282 
Ar 1.87132 4.88025 6.73516 6.00569 14.4306 -4.55489 
Ar 0.852783 2.62872 6.18833 10.4461 14.4964 18.1031 
Ar 0.284261 3.45721 4.43623 0.954964 16.5395 25.7382 
Ar 1.92874 6.46624 1.31343 -9.98886 19.284 -8.26827 
Ar 1.11448 1.12365 3.12119 6.91872 26.1118 2.2447 
Ar 0.783884 6.15722 2.25553 27.5825 -23.8027 0.106644 
Ar 1.70163 3.33563 1.64516 7.38889 -11.2048 18.5746 
Ar 6.65751 1.00506 1.49661 29.7153 1.32339 15.8433 
Ar 5.10446 3.49692 5.59105 9.14184 9.98643 -7.05912 
Ar 2.12451 0.627878 5.69313 24.1053 -17.4007 10.631 
Ar 0.139035 0.976992 5.5906 18.8628 -13.8934 3.90892 
Ar 1.88414 1.30607 6.54383 7.21614 3.70285 5.13422 
Ar 3.51086 2.688 3.55103 2.0682 -1.77292 16.6852 
Ar 4.27433 5.82276 0.637346 22.9734 26.669 3.33464 
Ar 4.2498 5.05157 2.91384 18.589 25.4534 -12.6705 
Ar 0.0894931 2.17782 1.13788 9.72614 4.76325 5.90328 
Ar 5.49089 6.13753 2.08876 10.5375 11.6996 4.79736 
Ar 4.05903 1.45099 0.256441 21.4398 13.5715 -1.87557 
Ar 4.67354 0.729261 2.3305 -5.80654 11.2649 23.5795 
Ar 5.09444 6.61086 1.06709 23.5111 -15.3303 -20.0558 
Ar 2.84196 3.59195 5.05429 11.2168 5.56903 17.5466 
