32
comment
Ar 5.76777 2.05859 2.9682 -35.1436 2.67996 31.9642 
Ar 4.22842 3.29158 6.31068 31.4629 5.09004 -19.7691 
Ar 2.94693 1.17615 2.23989 -20.0273 -3.44198 -8.13219 
Ar 2.90679 1.52275 1.09222 8.63251 1.55896 14.2374 
Ar 1.39262 2.03977 4.8337 -10.3759 1.51966 10.1528 
Ar 6.57134 3.69837 6.73023 -3.90594 -3.49561 22.9563 
Ar 2.64487 5.39249 1.36384 -4.66049 15.6747 26.9638 
Ar 1.63707 4.05319 4.22713 -3.31711 17.5773 3.44594 
Ar 2.09882 3.78376 2.75825 -26.6519 15.6482 -3.34587 
Ar 4.75304 4.01813 1.54473 0.85255 24.6577 14.2569 
Ar 3.04995 5.84545 2.90173 -6.22385 11.5797 17.212 
Ar 2.11171 5.45732 6.55237 6.02148 14.4213 -4.5931 
Ar 1.27078 3.20819 0.101913 10.4497 14.4791 18.0812 
Ar 0.323324 4.11867 5.46555 0.990999 16.5333 25.7262 
Ar 1.52891 0.427313 0.983218 -10.0004 19.2905 -8.23848 
Ar 1.39126 2.16843 3.21102 6.92855 26.1301 2.23488 
Ar 1.88781 5.20495 2.25932 27.628 -23.8144 0.0833287 
Ar 1.99602 2.88419 2.38605 7.23228 -11.6841 18.2903 
Ar 1.03656 1.05757 2.12909 29.7433 1.31869 15.7883 
Ar 5.4702 3.89638 5.30886 9.13503 9.98392 -7.0449 
Ar 3.08825 6.74276 6.11868 24.0815 -17.3663 10.6451 
Ar 0.893868 0.421457 5.74693 18.878 -13.8821 3.90673 
Ar 2.17381 1.45357 6.74688 7.25691 3.6777 5.02451 
Ar 3.59306 2.61734 4.2181 2.04723 -1.76205 16.6728 
Ar 5.13599 0.0714656 0.767004 20.4523 26.4192 3.22758 
Ar 4.99262 6.07037 2.40626 18.5567 25.4708 -12.7 
Ar 0.487891 2.38276 1.31621 10.027 5.18389 4.21686 
Ar 5.91455 6.60677 2.27868 10.857 11.8661 4.66961 
Ar 4.91607 1.99399 0.181698 21.4212 13.5742 -1.86436 
Ar 4.43999 1.18044 3.27351 -5.85207 11.2904 23.568 
Ar 6.24015 6.01138 0.304433 31.517 -15.535 -18.9607 
Ar 3.29055 3.81429 5.75585 11.2339 5.54235 17.5515 
