32
comment
Ar 6.47047 2.00494 2.32889 -35.1171 2.68845 31.98 
Ar 3.59897 3.18989 6.70566 31.4771 5.08193 -19.7297 
Ar 3.34748 1.24512 2.40225 -20.0375 -3.44911 -8.11539 
Ar 2.7341 1.49143 0.80787 8.63357 1.57035 14.2039 
Ar 1.60014 2.00939 4.6305 -10.3747 1.51769 10.1674 
Ar 6.64907 3.76827 6.27073 -3.86494 -3.49063 22.9939 
Ar 2.73792 5.07896 0.824895 -4.65023 15.6768 26.9399 
Ar 1.70344 3.70156 4.1581 -3.31881 17.5864 3.45328 
Ar 2.63407 3.47689 2.8292 -26.8507 15.2109 -3.67578 
Ar 4.73598 3.52498 1.2596 0.85387 24.6581 14.2563 
Ar 3.17428 5.61371 2.55726 -6.2179 11.5925 17.233 
Ar 1.99138 5.16886 6.64403 6.01021 14.4275 -4.56955 
Ar 1.06176 2.91854 6.55027 10.4508 14.4866 18.0899 
Ar 0.303613 3.78797 4.95095 0.977538 16.5359 25.7336 
Ar 1.72887 0.0417268 1.14822 -9.99587 19.2711 -8.25504 
Ar 1.25285 1.64598 3.16611 6.91907 26.1199 2.24796 
Ar 1.33567 5.68117 2.25753 27.595 -23.8063 0.0940344 
Ar 1.84954 3.11152 2.01679 7.4059 -11.2037 18.5947 
Ar 0.441878 1.03132 1.81311 29.7265 1.30172 15.8083 
Ar 5.28735 3.69666 5.44988 9.14713 9.98718 -7.05606 
Ar 2.60652 0.280066 5.90579 24.0922 -17.3746 10.6414 
Ar 0.516371 0.699168 5.66877 18.871 -13.8888 3.90868 
Ar 2.02877 1.37995 6.64589 7.24437 3.68525 5.07442 
Ar 3.55208 2.65259 3.88465 2.05169 -1.76386 16.6734 
Ar 4.72692 6.35308 0.702519 21.3669 26.389 3.19875 
Ar 4.62124 5.5608 2.6602 18.5619 25.469 -12.6904 
Ar 0.287506 2.279 1.23193 10.0129 5.19546 4.20813 
Ar 5.70119 6.37138 2.18436 10.4956 11.6819 4.7663 
Ar 4.48762 1.72248 0.219019 21.4248 13.5758 -1.86811 
Ar 4.55701 0.954742 2.80209 -5.84497 11.2807 23.5748 
Ar 5.60977 6.32205 0.683728 28.2997 -14.136 -18.7293 
Ar 3.06617 3.70325 5.405 11.2096 5.56003 17.5352 
