32
comment
Ar 6.18406 1.71731 4.47571 -33.575 -4.64868 27.424 
Ar 5.28201 3.3923 3.01895 23.9584 -12.6547 -14.8783 
Ar 0.0973385 1.60752 3.77106 -22.0189 4.28667 -7.14724 
Ar 1.57961 1.0106 6.66799 6.60395 4.08954 -0.736303 
Ar 4.01173 0.425717 3.02729 -15.0056 13.9715 7.28938 
Ar 0.672196 3.99617 2.19885 -6.22061 5.15643 23.7311 
Ar 3.58132 2.26412 2.78473 -4.77831 15.7449 26.639 
Ar 1.35649 1.94033 3.18443 5.22168 5.38692 6.58394 
Ar 1.26157 1.67527 1.61434 -30.873 12.3924 9.74317 
Ar 5.2644 0.173477 6.17238 -9.99951 13.8901 4.15291 
Ar 4.30461 3.53223 6.28651 -6.28529 11.5403 17.0522 
Ar 1.25413 3.44458 0.113622 6.06262 0.503887 -4.59851 
Ar 6.36714 0.349653 3.78077 2.03299 16.7234 12.5763 
Ar 6.75498 0.149132 0.648766 3.49084 25.6759 21.369 
Ar 3.53708 3.43278 2.66399 -11.6779 11.6855 -13.6012 
Ar 6.72697 4.15858 2.60643 4.1855 12.4594 4.64074 
Ar 3.1787 3.11265 2.19246 28.7019 -17.8192 4.08724 
Ar 6.10501 4.86213 0.205674 20.2837 -9.02159 3.12358 
Ar 1.99326 0.322712 5.89924 29.1879 8.01231 13.4014 
Ar 3.64431 1.90351 6.71518 9.09065 9.85195 -6.99577 
Ar 6.36048 2.90257 3.50702 9.20394 -21.2006 12.8636 
Ar 3.9159 3.20295 4.96806 19.014 -13.8667 3.83128 
Ar 6.7436 0.470297 5.7653 13.7002 5.72218 5.1339 
Ar 2.70509 1.62844 2.58043 6.1879 5.69493 6.25054 
Ar 0.599674 1.55367 0.111025 22.9298 26.6799 3.2434 
Ar 1.99881 0.856128 4.89857 10.3179 26.9251 -12.2403 
Ar 5.502 1.75293 6.04262 8.68473 2.65692 12.1998 
Ar 3.78771 4.24926 1.31048 10.7323 11.894 4.87268 
Ar 0.627822 6.08292 0.563367 21.4396 13.6517 -1.93942 
Ar 6.38419 5.91999 6.31893 -11.6019 11.3039 15.8811 
Ar 0.145387 1.36894 3.61686 32.8045 -8.84441 -15.3683 
Ar 1.11457 3.55817 2.53184 8.10686 0.520304 14.138 
