32
comment
Ar 3.03566 3.34237 5.51606 -21.3976 22.3024 13.1714 
Ar 0.557349 3.77808 4.34012 31.3393 4.65076 -19.6207 
Ar 1.23761 0.801258 1.01705 -15.8373 -3.82511 -14.0715 
Ar 3.77586 1.68811 2.49958 8.67966 1.69144 14.0722 
Ar 0.355695 2.19188 5.84675 -10.3625 1.53246 10.0729 
Ar 6.17584 3.34505 2.21326 -3.99275 -3.57651 22.8898 
Ar 2.19325 0.176174 4.01498 -4.72774 15.8734 25.8015 
Ar 1.30663 5.80902 4.5702 -3.24493 17.5018 3.44579 
Ar 6.24911 5.36183 2.43154 -26.5941 15.7601 -3.27612 
Ar 4.83802 6.48352 2.97044 0.850153 24.6437 14.2564 
Ar 2.6255 0.200918 5.0082 1.41981 11.6022 31.407 
Ar 3.38406 6.69162 6.52904 22.9663 10.2829 6.42821 
Ar 2.31426 4.6534 1.91275 10.4218 14.429 18.1227 
Ar 0.233401 5.37733 1.29895 -2.16751 9.99835 26.9357 
Ar 0.536121 2.35925 0.161892 -9.70861 19.1746 -8.50906 
Ar 1.61684 4.81479 3.82005 1.04513 26.63 7.08168 
Ar 4.60918 2.7621 2.31157 27.157 -24.517 0.566153 
Ar 3.02576 1.76103 3.90008 10.1532 -8.86881 14.0667 
Ar 3.70753 0.960367 4.2305 28.3888 -10.1665 23.4333 
Ar 6.41857 5.17835 4.47809 9.5902 14.6399 -9.05902 
Ar 5.49164 5.00242 0.373237 23.9798 -17.4515 10.6565 
Ar 2.23695 5.99085 5.80448 5.70627 -10.9746 -4.21805 
Ar 2.89586 1.81924 0.440448 7.1921 3.64797 5.06547 
Ar 3.47297 2.33602 6.48107 -3.36979 -7.66107 32.7248 
Ar 0.369374 2.71912 1.09394 20.3516 26.765 3.61996 
Ar 6.76419 1.80203 1.11952 17.5539 25.2193 -12.884 
Ar 1.49366 2.90039 1.73588 10.0407 5.15732 4.15421 
Ar 1.14799 1.20971 2.97512 21.5842 14.2554 7.46622 
Ar 0.248719 3.35031 0.00044131 21.3656 13.6345 -1.73381 
Ar 3.51403 1.45421 5.49686 -10.8435 -1.626 21.5633 
Ar 2.78121 5.06168 5.08042 34.8062 -6.25188 -21.4243 
Ar 4.41762 4.36811 0.700041 11.3131 5.57209 17.5322 
