32
comment
Ar 0.32377 1.27865 4.32152 10.2548 36.2633 18.0014 
Ar 5.98449 5.28265 5.10764 29.683 0.31264 -7.42073 
Ar 4.74013 5.51904 1.95152 -2.39547 -7.90638 -19.1682 
Ar 6.26145 3.41036 5.81906 11.2233 15.3825 4.66067 
Ar 1.97328 2.40815 4.47707 -12.6751 -5.09166 23.415 
Ar 2.19289 0.0125976 2.83149 4.07997 21.9221 16.1909 
Ar 1.21062 5.21576 0.201996 6.1612 2.18811 21.9424 
Ar 0.442752 5.7227 6.73662 15.3039 15.5842 5.74569 
Ar 6.35929 2.10464 4.12449 -13.0076 5.01057 9.23277 
Ar 5.49835 1.26695 4.4265 3.60705 -5.50961 30.3654 
Ar 5.5967 5.78041 2.25132 -12.9515 -8.22155 23.8453 
Ar 5.15801 4.48543 1.52264 19.5909 14.8849 -0.600878 
Ar 4.92915 2.79597 2.33718 0.719042 10.0881 13.3387 
Ar 0.368078 0.462228 6.53641 3.70279 3.49525 8.25183 
Ar 4.05632 3.76107 0.908954 -6.87652 20.7098 14.1339 
Ar 2.50698 1.81122 4.24108 2.31101 27.5597 -9.95128 
Ar 0.257803 2.37768 2.27403 11.5363 -8.49592 -3.10775 
Ar 0.226205 4.99943 2.66175 10.7982 -10.7472 16.0112 
Ar 1.34927 3.73731 6.68319 30.6017 -18.8854 20.0234 
Ar 3.89682 6.57457 0.511303 10.4796 25.3593 14.3179 
Ar 6.29776 5.29909 6.74251 22.1472 -10.287 24.4584 
Ar 4.41067 1.66877 4.16707 5.51787 -11.0905 -4.13608 
Ar 6.22358 4.05289 0.119644 -20.6778 -22.7938 8.75833 
Ar 6.68221 1.49114 6.72612 7.18561 20.9725 34.2405 
Ar 3.1144 4.79796 3.47107 34.6966 15.4632 10.1481 
Ar 4.55646 3.85361 1.9609 0.266464 22.852 -19.0061 
Ar 1.53136 5.88399 1.4871 27.039 12.7351 31.2299 
Ar 1.32527 1.25974 5.76984 9.49962 28.9774 7.09941 
Ar 0.683996 1.90191 2.87347 20.6569 6.73312 13.5877 
Ar 2.81486 5.16073 1.9926 6.12484 -0.673318 -0.0426185 
Ar 2.68207 2.69333 3.62166 32.8681 0.259036 -24.211 
Ar 2.19981 0.0704999 0.385158 13.4541 9.06939 13.5553 
