32
comment
Ar -0.0647237 0.379387 7.99306 -81.6583 -68.2004 242.214 
Ar 2.54704 8.40416 1.52974 77.183 174.975 -33.3414 
Ar -5.30139 4.99634 8.67288 -240.345 151.404 183.117 
Ar 3.50281 -10.6752 -8.8794 106.146 -323.492 -269.073 
Ar 5.83414 -3.80017 5.44887 97.095 -194.854 5.7234 
Ar 1.7849 1.32026 7.92701 54.0879 -39.6891 1.12158 
Ar 4.0476 0.883547 18.1917 42.9577 26.7741 312.174 
Ar 0.459754 9.733 3.05228 13.9319 294.939 -66.9005 
Ar -3.28722 3.80838 6.65907 -179.31 -123.685 201.79 
Ar 2.95523 7.57065 10.6015 89.5525 -9.67731 241.561 
Ar 0.136604 3.71683 -1.15172 -75.5575 -46.7628 -114.597 
Ar -1.17945 3.59113 0.744936 -35.7408 -50.5719 22.5738 
Ar 5.18819 -0.777694 5.88696 77.521 -262.657 18.9987 
Ar 3.71792 4.52711 13.8338 112.664 -101.906 180.115 
Ar 0.77634 8.83466 4.87448 -56.1715 108.323 -91.3793 
Ar 9.37834 2.25644 -2.90527 284.192 -91.017 -247.432 
Ar 5.15039 -0.0038191 1.33492 -83.0186 -79.8127 40.4521 
Ar -5.06683 4.46537 -8.26156 -312.934 55.6172 -330.047 
Ar 8.07625 3.40492 1.31458 5.64408 103.179 -39.8612 
Ar 7.19806 -2.92909 -2.18456 58.729 -88.7604 -66.1989 
Ar -5.62048 1.98633 3.69459 -409.408 -19.5053 -47.4366 
Ar 14.06 -5.51497 7.79635 266.667 -246.817 -2.83797 
Ar 20.4794 -5.96496 12.7352 381.498 -180.756 146.824 
Ar 11.337 6.9528 6.64526 184.152 210.691 41.9777 
Ar 9.84156 12.5652 5.02217 59.1381 141.672 152.187 
Ar 0.875416 9.61067 10.8553 -132.866 52.1416 249.251 
Ar 7.31246 10.0581 3.68695 -17.5013 145.397 32.0288 
Ar 0.497422 8.96268 -3.40987 -144.321 112.202 -103.33 
Ar 13.2386 7.02415 6.60666 162.08 -26.2379 40.8078 
Ar 10.8167 6.37688 8.91709 168.384 -45.852 31.1239 
Ar 11.3876 3.38609 6.82646 105.988 -56.7853 -32.2285 
Ar 4.62231 8.06353 10.5446 -19.3241 84.9556 160.139 
