32
comment
Ar -4.63759 -3.43983 21.557 -81.6583 -68.2004 242.214 
Ar 6.86929 18.2027 -0.337381 77.183 174.975 -33.3414 
Ar -18.7607 13.475 18.9275 -240.345 151.404 183.117 
Ar 9.44699 -28.7908 -23.9475 106.146 -323.492 -269.073 
Ar 11.2715 -14.712 5.76938 97.095 -194.854 5.7234 
Ar 4.81382 -0.902334 7.98982 54.0879 -39.6891 1.12158 
Ar 6.45324 2.3829 35.6735 42.9577 26.7741 312.174 
Ar 1.23994 26.2496 -0.694141 13.9319 294.939 -66.9005 
Ar -13.3286 -3.118 17.9593 -179.31 -123.685 201.79 
Ar 7.97018 7.02872 24.129 89.5525 -9.67731 241.561 
Ar -4.09461 1.09811 -7.56918 -75.5575 -46.7628 -114.597 
Ar -3.18093 0.759101 2.00907 -35.7408 -50.5719 22.5738 
Ar 9.52937 -15.4865 6.95088 77.521 -262.657 18.9987 
Ar 10.0271 -1.17961 23.9202 112.664 -101.906 180.115 
Ar -2.36926 14.9008 -0.242761 -56.1715 108.323 -91.3793 
Ar 25.2931 -2.84052 -16.7615 284.192 -91.017 -247.432 
Ar 0.501344 -4.47333 3.60024 -83.0186 -79.8127 40.4521 
Ar -22.5911 7.57993 -26.7442 -312.934 55.6172 -330.047 
Ar 8.39232 9.18297 -0.917643 5.64408 103.179 -39.8612 
Ar 10.4869 -7.89967 -5.8917 58.729 -88.7604 -66.1989 
Ar -28.5473 0.894032 1.03814 -409.408 -19.5053 -47.4366 
Ar 28.9934 -19.3367 7.63742 266.667 -246.817 -2.83797 
Ar 41.8433 -16.0873 20.9573 381.498 -180.756 146.824 
Ar 21.6495 18.7515 8.99602 184.152 210.691 41.9777 
Ar 13.1533 20.4989 13.5446 59.1381 141.672 152.187 
Ar -6.56509 12.5306 24.8134 -132.866 52.1416 249.251 
Ar 6.33238 18.2003 5.48056 -17.5013 145.397 32.0288 
Ar -7.58453 15.246 -9.19633 -144.321 112.202 -103.33 
Ar 22.3151 5.55482 8.8919 162.08 -26.2379 40.8078 
Ar 20.2462 3.80917 10.66 168.384 -45.852 31.1239 
Ar 17.3229 0.206109 5.02167 105.988 -56.7853 -32.2285 
Ar 3.54016 12.821 19.5124 -19.3241 84.9556 160.139 
