32
comment
Ar 0.425226 0.78859 6.53978 -81.6583 -68.2004 242.214 
Ar 2.08394 7.35432 1.72978 77.183 174.975 -33.3414 
Ar -3.85932 4.08791 7.57417 -240.345 151.404 183.117 
Ar 2.86594 -8.73428 -7.26497 106.146 -323.492 -269.073 
Ar 5.25157 -2.63105 5.41453 97.095 -194.854 5.7234 
Ar 1.46037 1.55839 7.92028 54.0879 -39.6891 1.12158 
Ar 3.78986 0.722902 16.3187 42.9577 26.7741 312.174 
Ar 0.376163 7.96336 3.45369 13.9319 294.939 -66.9005 
Ar -2.21136 4.55049 5.44833 -179.31 -123.685 201.79 
Ar 2.41792 7.62871 9.15215 89.5525 -9.67731 241.561 
Ar 0.589949 3.9974 -0.464132 -75.5575 -46.7628 -114.597 
Ar -0.965001 3.89456 0.609493 -35.7408 -50.5719 22.5738 
Ar 4.72307 0.79825 5.77296 77.521 -262.657 18.9987 
Ar 3.04194 5.13854 12.7531 112.664 -101.906 180.115 
Ar 1.11337 8.18473 5.42276 -56.1715 108.323 -91.3793 
Ar 7.67318 2.80254 -1.42068 284.192 -91.017 -247.432 
Ar 5.6485 0.475057 1.09221 -83.0186 -79.8127 40.4521 
Ar -3.18923 4.13167 -6.28128 -312.934 55.6172 -330.047 
Ar 8.04239 2.78584 1.55375 5.64408 103.179 -39.8612 
Ar 6.84568 -2.39653 -1.78737 58.729 -88.7604 -66.1989 
Ar -3.16403 2.10336 3.97921 -409.408 -19.5053 -47.4366 
Ar 12.46 -4.03407 7.81337 266.667 -246.817 -2.83797 
Ar 18.1904 -4.88042 11.8542 381.498 -180.756 146.824 
Ar 10.2321 5.68865 6.3934 184.152 210.691 41.9777 
Ar 9.48673 11.7152 4.10904 59.1381 141.672 152.187 
Ar 1.67261 9.29782 9.35978 -132.866 52.1416 249.251 
Ar 7.41746 9.18571 3.49478 -17.5013 145.397 32.0288 
Ar 1.36335 8.28947 -2.7899 -144.321 112.202 -103.33 
Ar 12.2662 7.18158 6.36181 162.08 -26.2379 40.8078 
Ar 9.80637 6.652 8.73034 168.384 -45.852 31.1239 
Ar 10.7517 3.7268 7.01983 105.988 -56.7853 -32.2285 
Ar 4.73825 7.5538 9.58376 -19.3241 84.9556 160.139 
