32
comment
Ar 0.343568 0.720389 6.78199 -81.6583 -68.2004 242.214 
Ar 2.16113 7.52929 1.69644 77.183 174.975 -33.3414 
Ar -4.09967 4.23932 7.75729 -240.345 151.404 183.117 
Ar 2.97209 -9.05777 -7.53404 106.146 -323.492 -269.073 
Ar 5.34866 -2.8259 5.42026 97.095 -194.854 5.7234 
Ar 1.51446 1.5187 7.9214 54.0879 -39.6891 1.12158 
Ar 3.83282 0.749676 16.6309 42.9577 26.7741 312.174 
Ar 0.390095 8.2583 3.38679 13.9319 294.939 -66.9005 
Ar -2.39067 4.42681 5.65012 -179.31 -123.685 201.79 
Ar 2.50747 7.61904 9.39372 89.5525 -9.67731 241.561 
Ar 0.514391 3.95064 -0.578729 -75.5575 -46.7628 -114.597 
Ar -1.00074 3.84399 0.632067 -35.7408 -50.5719 22.5738 
Ar 4.80059 0.535593 5.79196 77.521 -262.657 18.9987 
Ar 3.1546 5.03664 12.9332 112.664 -101.906 180.115 
Ar 1.0572 8.29305 5.33138 -56.1715 108.323 -91.3793 
Ar 7.95738 2.71152 -1.66811 284.192 -91.017 -247.432 
Ar 5.56548 0.395244 1.13266 -83.0186 -79.8127 40.4521 
Ar -3.50216 4.18728 -6.61133 -312.934 55.6172 -330.047 
Ar 8.04803 2.88902 1.51389 5.64408 103.179 -39.8612 
Ar 6.90441 -2.48529 -1.85357 58.729 -88.7604 -66.1989 
Ar -3.57343 2.08385 3.93178 -409.408 -19.5053 -47.4366 
Ar 12.7267 -4.28088 7.81054 266.667 -246.817 -2.83797 
Ar 18.5719 -5.06118 12.0011 381.498 -180.756 146.824 
Ar 10.4163 5.89934 6.43538 184.152 210.691 41.9777 
Ar 9.54587 11.8568 4.26123 59.1381 141.672 152.187 
Ar 1.53975 9.34996 9.60903 -132.866 52.1416 249.251 
Ar 7.39996 9.33111 3.52681 -17.5013 145.397 32.0288 
Ar 1.21903 8.40167 -2.89323 -144.321 112.202 -103.33 
Ar 12.4282 7.15534 6.40262 162.08 -26.2379 40.8078 
Ar 9.97476 6.60614 8.76147 168.384 -45.852 31.1239 
Ar 10.8577 3.67001 6.9876 105.988 -56.7853 -32.2285 
Ar 4.71893 7.63876 9.7439 -19.3241 84.9556 160.139 
