32
comment
Ar -4.96422 -3.71264 22.5259 -81.6583 -68.2004 242.214 
Ar 7.17802 18.9026 -0.470746 77.183 174.975 -33.3414 
Ar -19.7221 14.0806 19.6599 -240.345 151.404 183.117 
Ar 9.87157 -30.0848 -25.0238 106.146 -323.492 -269.073 
Ar 11.6598 -15.4914 5.79228 97.095 -194.854 5.7234 
Ar 5.03017 -1.06109 7.99431 54.0879 -39.6891 1.12158 
Ar 6.62507 2.49 36.9221 42.9577 26.7741 312.174 
Ar 1.29567 27.4294 -0.961743 13.9319 294.939 -66.9005 
Ar -14.0458 -3.61274 18.7665 -179.31 -123.685 201.79 
Ar 8.32839 6.99001 25.0952 89.5525 -9.67731 241.561 
Ar -4.39684 0.911056 -8.02757 -75.5575 -46.7628 -114.597 
Ar -3.32389 0.556813 2.09937 -35.7408 -50.5719 22.5738 
Ar 9.83945 -16.5371 7.02688 77.521 -262.657 18.9987 
Ar 10.4778 -1.58724 24.6407 112.664 -101.906 180.115 
Ar -2.59395 15.3341 -0.608278 -56.1715 108.323 -91.3793 
Ar 26.4299 -3.20458 -17.7512 284.192 -91.017 -247.432 
Ar 0.16927 -4.79258 3.76205 -83.0186 -79.8127 40.4521 
Ar -23.8429 7.8024 -28.0644 -312.934 55.6172 -330.047 
Ar 8.4149 9.59569 -1.07709 5.64408 103.179 -39.8612 
Ar 10.7218 -8.25471 -6.15649 58.729 -88.7604 -66.1989 
Ar -30.185 0.816011 0.848398 -409.408 -19.5053 -47.4366 
Ar 30.06 -20.324 7.62607 266.667 -246.817 -2.83797 
Ar 43.3693 -16.8103 21.5446 381.498 -180.756 146.824 
Ar 22.3861 19.5943 9.16393 184.152 210.691 41.9777 
Ar 13.3898 21.0655 14.1534 59.1381 141.672 152.187 
Ar -7.09656 12.7392 25.8104 -132.866 52.1416 249.251 
Ar 6.26238 18.7819 5.60868 -17.5013 145.397 32.0288 
Ar -8.16181 15.6948 -9.60965 -144.321 112.202 -103.33 
Ar 22.9634 5.44987 9.05513 162.08 -26.2379 40.8078 
Ar 20.9197 3.62576 10.7845 168.384 -45.852 31.1239 
Ar 17.7469 -0.0210322 4.89275 105.988 -56.7853 -32.2285 
Ar 3.46286 13.1609 20.1529 -19.3241 84.9556 160.139 
