32
comment
Ar 1.24181 1.47059 4.11764 -81.6583 -68.2004 242.214 
Ar 1.31211 5.60457 2.0632 77.183 174.975 -33.3414 
Ar -1.45587 2.57387 5.743 -240.345 151.404 183.117 
Ar 1.80448 -5.49936 -4.57424 106.146 -323.492 -269.073 
Ar 4.28062 -0.68251 5.3573 97.095 -194.854 5.7234 
Ar 0.919494 1.95528 7.90907 54.0879 -39.6891 1.12158 
Ar 3.36028 0.45516 13.197 42.9577 26.7741 312.174 
Ar 0.236843 5.01397 4.12269 13.9319 294.939 -66.9005 
Ar -0.418266 5.78735 3.43043 -179.31 -123.685 201.79 
Ar 1.52239 7.72549 6.73654 89.5525 -9.67731 241.561 
Ar 1.34552 4.46503 0.681843 -75.5575 -46.7628 -114.597 
Ar -0.607593 4.40028 0.383755 -35.7408 -50.5719 22.5738 
Ar 3.94786 3.42482 5.58298 77.521 -262.657 18.9987 
Ar 1.91529 6.1576 10.952 112.664 -101.906 180.115 
Ar 1.67508 7.10149 6.33655 -56.1715 108.323 -91.3793 
Ar 4.83126 3.71271 1.05365 284.192 -91.017 -247.432 
Ar 6.47868 1.27318 0.687686 -83.0186 -79.8127 40.4521 
Ar -0.0598825 3.57549 -2.98081 -312.934 55.6172 -330.047 
Ar 7.98595 1.75405 1.95236 5.64408 103.179 -39.8612 
Ar 6.25839 -1.50893 -1.12538 58.729 -88.7604 -66.1989 
Ar 0.930058 2.29841 4.45358 -409.408 -19.5053 -47.4366 
Ar 9.79334 -1.56589 7.84175 266.667 -246.817 -2.83797 
Ar 14.3755 -3.07286 10.386 381.498 -180.756 146.824 
Ar 8.39058 3.58174 5.97362 184.152 210.691 41.9777 
Ar 8.89535 10.2984 2.58718 59.1381 141.672 152.187 
Ar 3.00127 8.77641 6.86727 -132.866 52.1416 249.251 
Ar 7.59248 7.73175 3.17449 -17.5013 145.397 32.0288 
Ar 2.80655 7.16744 -1.7566 -144.321 112.202 -103.33 
Ar 10.6454 7.44396 5.95373 162.08 -26.2379 40.8078 
Ar 8.12253 7.11052 8.41911 168.384 -45.852 31.1239 
Ar 9.6918 4.29465 7.34212 105.988 -56.7853 -32.2285 
Ar 4.93149 6.70425 7.98237 -19.3241 84.9556 160.139 
