32
comment
Ar 25.3379 18.7503 13.6372 2.10157e-14 -4.84429e-13 -1.88512e-13 
Ar 30.3893 6.06569 5.91154 -1.34125e-13 2.95025e-13 -5.394e-14 
Ar 9.67796 9.78765 33.4918 4.52766e-13 1.07751e-12 4.00644e-12 
Ar 6.4398 0.636191 28.162 -2.95547e-13 -7.83566e-13 3.76471e-13 
Ar 1.08235 10.122 6.02537 4.46726e-15 3.35047e-15 -3.10575e-15 
Ar 18.5238 28.1208 1.87702 1.11615e-13 1.12391e-13 -1.1249e-15 
Ar 10.5923 18.3464 4.04332 -7.48967e-14 -2.53561e-13 8.91687e-14 
Ar 32.8664 28.05 13.8836 -2.96653e-13 7.09559e-13 -1.51098e-12 
Ar 10.3464 6.35812 20.5668 1.64104e-13 -4.72833e-14 4.22542e-14 
Ar 8.05278 5.49076 7.59383 4.85199e-12 -3.70195e-12 -1.14672e-12 
Ar 24.5738 34.4185 1.23467 -1.90036e-14 3.29878e-14 3.16699e-14 
Ar 23.3726 29.9436 18.3603 -1.09054e-12 -8.3748e-14 9.48547e-13 
Ar 2.1847 30.16 31.1999 7.51016e-14 5.55586e-14 -4.80439e-14 
Ar 11.0708 29.3214 9.22462 2.48987e-14 2.04488e-14 -2.89174e-15 
Ar 5.40045 10.912 1.00561 1.96426e-12 -1.7792e-12 2.60941e-12 
Ar 34.2507 7.08654 27.6021 1.98223e-13 6.54675e-14 -3.19961e-13 
Ar 26.2493 27.2248 12.3783 -2.41745e-13 3.1961e-13 3.27236e-13 
Ar 12.8158 11.289 35.1186 3.65655e-12 -3.45965e-12 2.22733e-11 
Ar 28.1194 17.246 0.113038 -5.11748e-13 3.45673e-13 6.92354e-13 
Ar 25.1567 9.28783 8.34943 3.25818e-15 2.09507e-15 -4.34408e-16 
Ar 11.6893 12.3559 6.16591 -5.45091e-11 -6.96403e-11 2.29973e-10 
Ar 33.4986 0.59496 7.93888 1.01499e-15 5.50165e-15 -5.0151e-16 
Ar 3.13548 25.1531 4.04231 -8.10502e-15 6.5007e-15 8.01445e-15 
Ar 25.6416 10.0471 22.8175 1.98809e-14 4.45638e-14 3.18004e-14 
Ar 30.9587 13.4586 35.3425 8.5205e-18 3.31812e-16 -1.29435e-16 
Ar 7.3123 5.75805 8.42129 -1.98575e-13 7.96601e-14 2.15508e-13 
Ar 34.7692 32.2584 23.0318 -7.69939e-16 -6.62291e-16 5.5166e-15 
Ar 32.6887 23.3069 11.0601 1.09925e-11 -1.02639e-10 6.21856e-11 
Ar 30.0785 25.9061 25.977 -7.99894e-16 3.31525e-15 -2.82755e-15 
Ar 34.9706 7.47188 10.3269 1.24088e-15 3.77326e-15 5.99666e-15 
Ar 12.6744 11.6347 23.6768 -2.9191e-17 3.78611e-17 -6.26217e-18 
Ar 24.7467 18.1997 17.7559 5.41502e-11 -4.93662e-11 -3.69388e-10 
