32
comment
Ar 2.55654 2.56864 0.218345 -81.5633 -68.1379 243.078 
Ar 0.0697917 2.7875 2.60013 77.9548 175.034 -33.0038 
Ar 2.41368 0.136596 2.79495 -240.386 152.194 183.47 
Ar 0.0955602 10.2935 10.3316 106.194 -323.684 -269.254 
Ar 2.71738 2.45462 5.26511 97.0692 -194.93 5.5968 
Ar 0.0489007 2.59428 7.89079 54.5799 -39.7107 0.626846 
Ar 2.66867 0.0243187 8.17075 42.9713 27.2634 311.731 
Ar 0.0127827 0.265684 5.19976 14.5076 295.49 -66.9814 
Ar 2.46863 7.77857 0.18185 -179.308 -123.933 202.343 
Ar 0.0808372 7.88111 2.84748 90.1071 -10.1043 241.742 
Ar 2.56198 5.21789 2.52699 -75.6287 -46.831 -114.304 
Ar 10.4948 5.21449 0.0204089 -36.1354 -50.5702 22.7621 
Ar 2.69979 7.65329 5.27708 77.5823 -263.411 18.9423 
Ar 0.10156 7.79822 8.05204 113.036 -102.032 180.017 
Ar 2.5795 5.35752 7.80751 -56.0582 108.445 -91.9402 
Ar 0.256092 5.17808 5.03726 284.932 -91.0219 -247.597 
Ar 7.81525 2.55823 0.0366309 -83.0939 -79.6838 40.9544 
Ar 4.97829 2.68007 2.33306 -313.165 55.6424 -329.851 
Ar 7.89492 0.0930842 2.59419 5.30513 103.679 -39.7222 
Ar 5.31291 10.4578 10.4736 58.8447 -88.9203 -66.4606 
Ar 7.52121 2.61249 5.21727 -410.185 -19.446 -47.4822 
Ar 5.49995 2.40796 7.88717 266.582 -246.617 -3.48993 
Ar 8.23321 10.3934 8.02212 381.192 -181.032 146.778 
Ar 5.42569 0.189965 5.29773 184.095 211.523 41.8886 
Ar 7.94321 8.01735 0.137114 59.1082 141.325 152.505 
Ar 5.14039 7.93669 2.85442 -132.945 51.6144 249.494 
Ar 7.8741 5.39087 2.65884 -17.8152 145.445 32.0602 
Ar 5.13011 5.361 10.4474 -144.331 112.264 -103.889 
Ar 8.03565 7.86623 5.29679 161.593 -26.5896 40.94 
Ar 5.41159 7.84856 7.91793 168.488 -46.2486 30.9515 
Ar 7.9851 5.20891 7.86083 105.344 -56.7449 -32.5896 
Ar 5.24259 5.33648 5.40415 -19.3793 85.032 160.206 
