32
comment
Ar 3.00357e+09 6.49028e+09 9.64658e+08 -3.00357e+13 -6.49028e+13 -9.64658e+12 
Ar 120.83 6.86453 3.88568 137716 100359 48713.2 
Ar 7.7436 10.6543 7.98179 -18306.4 -8818.14 -2396.21 
Ar 4.65553e+10 1.00599e+11 1.49522e+10 1.50178e+13 3.24514e+13 4.82329e+12 
Ar 3.53365 0.694423 5.26576 87.6804 -198.454 -3.27656 
Ar 28601.6 23786.3 51546.7 7.83501e+06 6.53278e+06 1.4036e+07 
Ar 3.26926 0.457176 0.535947 315.685 252.678 461.926 
Ar 6.82453e+09 1.70352 4.63791 1.8957e+12 -1.86224e+12 -1.99234e+12 
Ar 383.665 4653.23 5072.89 -3.82213e+06 4.32901e+06 4.71319e+06 
Ar 1987.15 231.134 239.64 1.91072e+06 -2.23655e+06 -2.35067e+06 
Ar 203857 158227 306232 6.18797e+07 4.80516e+07 9.29019e+07 
Ar 10.2406 4340.07 8.71167 -163366 1.65295e+06 -987030 
Ar 3.59948 5.31518 5.70699 168.584 -220.292 125.676 
Ar 1.29758e+10 9.03966e+11 1.19487e+11 2.7033e+12 1.88326e+14 2.48932e+13 
Ar 27861.2 3.92408e+06 88938.6 -2.78589e+08 9.1268e+08 -8.89312e+08 
Ar 3499.04 2741.44 5354.69 -3.49011e+07 -2.73545e+07 -5.34746e+07 
Ar 6.68287 2.02969 1.30605 -163.903 -79.8452 411.818 
Ar 194.045 78.7828 192.665 -1.87143e+06 -710767 141342 
Ar 7.88357 1.1044 2.16126 -84.0683 193.038 -128.572 
Ar 5.83906 9.65365 9.87206 58.6639 -94.2781 -67.7655 
Ar 2704.07 8.27552 10523.3 604836 -7.64311e+06 2.05301e+06 
Ar 7.97688 0.218273 7.87601 333.168 -233.86 25.2529 
Ar 1.09433 8.67188 9.04503 378.751 -268.606 -91.5325 
Ar 4.42288 20089.7 5.20822 -302528 3.82522e+06 -1.02734e+06 
Ar 8.46742 9.25543 1.50935 58.2683 136.17 156.187 
Ar 3.85553 10.479 5.83819 -92.2087 13918.1 -5835.92 
Ar 7.72464 6.70542 2.96969 -14.5192 151.45 39.9775 
Ar 5.67088 7.30658 10.3525 600.48 501.6 241.99 
Ar 5.17417 2.9873 0.910698 13629.6 4592.23 -6165.28 
Ar 257.911 6.69641 6.25526 153638 5881.5 54281.5 
Ar 4.09381 5.20231e+12 3.91614 -4.6815e+14 4.33526e+15 -4.41611e+15 
Ar 6.22092e+06 2.13721e+06 88425.5 5.65548e+09 1.94301e+09 -8.84184e+08 
