32
comment
Ar 1.6501 1.8116 2.90657 -81.6583 -68.2004 242.214 
Ar 0.926197 4.7297 2.2299 77.183 174.975 -33.3414 
Ar -0.254143 1.81685 4.82741 -240.345 151.404 183.117 
Ar 1.27375 -3.8819 -3.22887 106.146 -323.492 -269.073 
Ar 3.79514 0.291757 5.32868 97.095 -194.854 5.7234 
Ar 0.649055 2.15373 7.90346 54.0879 -39.6891 1.12158 
Ar 3.14549 0.32129 11.6361 42.9577 26.7741 312.174 
Ar 0.167183 3.53927 4.45719 13.9319 294.939 -66.9005 
Ar 0.478283 6.40578 2.42148 -179.31 -123.685 201.79 
Ar 1.07463 7.77387 5.52874 89.5525 -9.67731 241.561 
Ar 1.72331 4.69885 1.25483 -75.5575 -46.7628 -114.597 
Ar -0.428889 4.65314 0.270886 -35.7408 -50.5719 22.5738 
Ar 3.56025 4.73811 5.48798 77.521 -262.657 18.9987 
Ar 1.35197 6.66713 10.0514 112.664 -101.906 180.115 
Ar 1.95594 6.55988 6.79345 -56.1715 108.323 -91.3793 
Ar 3.4103 4.1678 2.29081 284.192 -91.017 -247.432 
Ar 6.89378 1.67225 0.485425 -83.0186 -79.8127 40.4521 
Ar 1.50479 3.29741 -1.33057 -312.934 55.6172 -330.047 
Ar 7.95773 1.23815 2.15167 5.64408 103.179 -39.8612 
Ar 5.96475 -1.06512 -0.794386 58.729 -88.7604 -66.1989 
Ar 2.9771 2.39594 4.69076 -409.408 -19.5053 -47.4366 
Ar 8.46001 -0.331808 7.85594 266.667 -246.817 -2.83797 
Ar 12.468 -2.16908 9.65189 381.498 -180.756 146.824 
Ar 7.46982 2.52829 5.76373 184.152 210.691 41.9777 
Ar 8.59966 9.59007 1.82624 59.1381 141.672 152.187 
Ar 3.66561 8.5157 5.62101 -132.866 52.1416 249.251 
Ar 7.67998 7.00476 3.01435 -17.5013 145.397 32.0288 
Ar 3.52815 6.60643 -1.23995 -144.321 112.202 -103.33 
Ar 9.83496 7.57514 5.74969 162.08 -26.2379 40.8078 
Ar 7.28061 7.33978 8.26349 168.384 -45.852 31.1239 
Ar 9.16186 4.57858 7.50326 105.988 -56.7853 -32.2285 
Ar 5.02811 6.27947 7.18167 -19.3241 84.9556 160.139 
