32
comment
Ar 3.00357e+09 6.49028e+09 9.64658e+08 -3.00357e+13 -6.49028e+13 -9.64658e+12 
Ar 114.326 7.83269 4.66304 137716 100359 48713.2 
Ar 11.4023 1.62853 8.4605 -18280.8 -8810.2 -2390.82 
Ar 4.35517e+10 9.4109e+10 1.39875e+10 1.50178e+13 3.24514e+13 4.82329e+12 
Ar 3.51612 0.734116 5.26642 87.6763 -198.48 -3.24036 
Ar 27055.6 22500.8 48760.5 7.83501e+06 6.53278e+06 1.4036e+07 
Ar 3.20615 0.406706 0.443594 315.542 251.888 461.449 
Ar 6.44539e+09 8.81648 5.88209 1.8957e+12 -1.86224e+12 -1.99234e+12 
Ar 391.282 3808.47 4151.29 -3.82213e+06 4.32901e+06 4.71319e+06 
Ar 1626.04 226.696 241.015 1.91072e+06 -2.23655e+06 -2.35067e+06 
Ar 191502 148638 287672 6.18797e+07 4.80516e+07 9.29019e+07 
Ar 0.27937 4030.52 1.80833 -163366 1.65295e+06 -987030 
Ar 3.56576 5.35924 5.68185 168.603 -220.395 125.663 
Ar 1.24352e+10 8.66301e+11 1.14509e+11 2.7033e+12 1.88326e+14 2.48932e+13 
Ar 27867.1 3.74156e+06 88934.4 -2.78589e+08 9.1268e+08 -8.89312e+08 
Ar 3491.7 2739.99 5350.74 -3.49011e+07 -2.73545e+07 -5.34746e+07 
Ar 6.7178 2.04379 1.22584 -187.247 -60.237 391.169 
Ar 190.762 73.8905 185.436 -1.87143e+06 -710767 141342 
Ar 7.89695 1.06847 2.18449 -53.1298 168.683 -105.811 
Ar 5.82733 9.67239 9.88562 58.6752 -93.2259 -67.8466 
Ar 2604.15 2.24448 10133.7 604836 -7.64311e+06 2.05301e+06 
Ar 7.91152 0.265441 7.87123 309.75 -240.912 20.2904 
Ar 1.01859 8.7256 9.06334 378.712 -268.602 -91.5112 
Ar 6.09712 19345.6 5.31178 -302528 3.82522e+06 -1.02734e+06 
Ar 8.45576 9.22818 1.47812 58.3189 136.345 156.085 
Ar 3.87397 7.69539 7.00538 -92.195 13918.2 -5835.92 
Ar 7.72755 6.67515 2.96169 -14.6027 151.301 39.9965 
Ar 5.55079 7.20638 10.304 600.385 500.482 242.216 
Ar 2.44941 2.06804 2.14403 13623.7 4596.74 -6166.37 
Ar 248.223 5.52012 5.91897 153638 5881.5 54281.5 
Ar 6.42619 4.33526e+12 6.60388 -4.6815e+14 4.33526e+15 -4.41611e+15 
Ar 5.08984e+06 1.74862e+06 88421.8 5.65548e+09 1.94301e+09 -8.84184e+08 
