32
comment
Ar 2.46668 2.4936 0.484428 -81.6583 -68.2004 242.214 
Ar 0.154366 2.97995 2.56332 77.183 174.975 -33.3414 
Ar 2.14931 0.302809 2.99623 -240.345 151.404 183.117 
Ar 0.212292 -0.646984 -0.538146 106.146 -323.492 -269.073 
Ar 2.82419 2.24029 5.27145 97.095 -194.854 5.7234 
Ar 0.108176 2.55062 7.89224 54.0879 -39.6891 1.12158 
Ar 2.71592 0.0535483 8.51435 42.9577 26.7741 312.174 
Ar 0.0278639 0.589879 5.1262 13.9319 294.939 -66.9005 
Ar 2.27138 7.64263 0.40358 -179.31 -123.685 201.79 
Ar 0.179105 7.87065 3.11312 89.5525 -9.67731 241.561 
Ar 2.47889 5.16647 2.40081 -75.5575 -46.7628 -114.597 
Ar -0.0714816 5.15886 0.0451477 -35.7408 -50.5719 22.5738 
Ar 2.78504 7.36469 5.298 77.521 -262.657 18.9987 
Ar 0.225329 7.68619 8.25023 112.664 -101.906 180.115 
Ar 2.51766 5.47665 7.70724 -56.1715 108.323 -91.3793 
Ar 0.568384 5.07797 4.76514 284.192 -91.017 -247.432 
Ar 7.72396 2.47037 0.0809042 -83.0186 -79.8127 40.4521 
Ar 4.63413 2.74123 1.96991 -312.934 55.6172 -330.047 
Ar 7.90129 0.206359 2.55028 5.64408 103.179 -39.8612 
Ar 5.37746 -0.177521 -0.132398 58.729 -88.7604 -66.1989 
Ar 7.07118 2.59099 5.16513 -409.408 -19.5053 -47.4366 
Ar 5.79333 2.13637 7.88432 266.667 -246.817 -2.83797 
Ar 8.653 -0.361513 8.18365 381.498 -180.756 146.824 
Ar 5.6283 0.421382 5.34396 184.152 210.691 41.9777 
Ar 8.00828 8.17334 0.304374 59.1381 141.672 152.187 
Ar 4.99427 7.99428 3.1285 -132.866 52.1416 249.251 
Ar 7.855 5.55079 2.69406 -17.5013 145.397 32.0288 
Ar 4.97136 5.4844 -0.206659 -144.321 112.202 -103.33 
Ar 8.21416 7.83752 5.34162 162.08 -26.2379 40.8078 
Ar 5.59677 7.7983 7.95225 168.384 -45.852 31.1239 
Ar 8.10198 5.14643 7.82554 105.988 -56.7853 -32.2285 
Ar 5.22135 5.42991 5.58028 -19.3241 84.9556 160.139 
