32
comment
Ar -2.18784 -1.39382 14.2906 -81.6583 -68.2004 242.214 
Ar 4.5538 12.9535 0.66286 77.183 174.975 -33.3414 
Ar -11.5504 8.93285 13.4339 -240.345 151.404 183.117 
Ar 6.26261 -19.086 -15.8753 106.146 -323.492 -269.073 
Ar 8.35861 -8.86636 5.59768 97.095 -194.854 5.7234 
Ar 3.19119 0.28834 7.95617 54.0879 -39.6891 1.12158 
Ar 5.1645 1.57967 26.3082 42.9577 26.7741 312.174 
Ar 0.821985 17.4014 1.31287 13.9319 294.939 -66.9005 
Ar -7.94928 0.592561 11.9056 -179.31 -123.685 201.79 
Ar 5.2836 7.31904 16.8821 89.5525 -9.67731 241.561 
Ar -1.82789 2.50099 -4.13125 -75.5575 -46.7628 -114.597 
Ar -2.10871 2.27626 1.33186 -35.7408 -50.5719 22.5738 
Ar 7.20374 -7.60679 6.38092 77.521 -262.657 18.9987 
Ar 6.64719 1.87756 18.5168 112.664 -101.906 180.115 
Ar -0.684119 11.6511 2.49862 -56.1715 108.323 -91.3793 
Ar 16.7673 -0.110005 -9.33851 284.192 -91.017 -247.432 
Ar 2.9919 -2.07895 2.38667 -83.0186 -79.8127 40.4521 
Ar -13.2031 5.91142 -16.8428 -312.934 55.6172 -330.047 
Ar 8.223 6.08759 0.278192 5.64408 103.179 -39.8612 
Ar 8.72501 -5.23686 -3.90573 58.729 -88.7604 -66.1989 
Ar -16.2651 1.47919 2.46124 -409.408 -19.5053 -47.4366 
Ar 20.9934 -11.9322 7.72256 266.667 -246.817 -2.83797 
Ar 30.3984 -10.6646 16.5526 381.498 -180.756 146.824 
Ar 16.125 12.4308 7.73669 184.152 210.691 41.9777 
Ar 11.3792 16.2487 8.97902 59.1381 141.672 152.187 
Ar -2.57911 10.9664 17.3358 -132.866 52.1416 249.251 
Ar 6.85742 13.8384 4.5197 -17.5013 145.397 32.0288 
Ar -3.25491 11.8799 -6.09644 -144.321 112.202 -103.33 
Ar 17.4527 6.34196 7.66766 162.08 -26.2379 40.8078 
Ar 15.1947 5.18473 9.72631 168.384 -45.852 31.1239 
Ar 14.1433 1.90967 5.98852 105.988 -56.7853 -32.2285 
Ar 4.11988 10.2724 14.7082 -19.3241 84.9556 160.139 
