32
comment
Ar 5.62762 10.7492 0.00356451 1.53481e-10 -2.80126e-10 2.03121e-10 
Ar 0.000833868 26.9072 26.8893 6.65885e-15 -1.23227e-14 -5.23422e-15 
Ar 17.2456 2.60974 29.14 -1.51202e-05 -2.51783e-05 1.00283e-05 
Ar 29.6688 8.47254 10.2181 -2.10493e-15 9.40447e-15 -2.59381e-15 
Ar 3.66477 3.63552 7.33834 4.92777e-10 5.75188e-10 -4.22109e-10 
Ar 0.000224121 27.0496 19.9392 1.01263e-15 1.02984e-14 1.00377e-14 
Ar 28.6855 0.000294089 30.6663 -5.75988e-08 -2.05459e-11 5.76804e-08 
Ar 0.264295 8.46595 7.79221 -0.000722773 0.00312593 -0.00126974 
Ar 16.3048 30.6603 0.00213206 1.85988e-15 2.70619e-15 6.81241e-16 
Ar 20.4488 33.4929 2.27606 -0.00244739 4.28327e-07 -0.00245106 
Ar 4.32358 6.62942 4.32124 7.26298e-07 -3.29812e-06 -3.32414e-06 
Ar 27.2242 7.33761 0.000294089 -2.83143e-13 -8.18743e-13 1.98966e-12 
Ar 31.8389 19.9365 7.33805 1.22539e-13 5.09414e-13 3.96625e-14 
Ar 2.89795 2.85562 16.0892 -6.06692e-14 -1.58242e-13 2.91625e-13 
Ar 26.8475 20.844 16.4228 -4596.78 4692.05 -7.54339 
Ar 0.00251599 7.33378 7.33232 -0.000722768 0.00312592 0.00126973 
Ar 30.6614 16.3066 7.99529 -1.08707e-14 -2.66209e-15 -1.8431e-14 
Ar 7.32362 3.63276 3.60505 -3.58045e-06 -3.35572e-06 -3.45473e-07 
Ar 30.664 0.00100152 28.6851 0.000889225 3.17961e-07 0.000890858 
Ar 7.33967 3.48045 1.22116 -4.70622e-09 -4.54741e-08 7.12979e-07 
Ar 30.6559 21.121 7.33705 -2.73055e-14 2.71347e-15 1.71387e-14 
Ar 7.33188 31.8232 19.9347 0.00161368 -0.00164713 2.64808e-06 
Ar 30.6685 12.5208 19.9431 9.75308e-16 7.09144e-17 7.71779e-16 
Ar 7.3362 0.00191536 7.3349 1.32331e-10 -3.56544e-09 -6.57942e-09 
Ar 16.685 30.8963 30.3096 1.66076e-13 1.35633e-14 1.78575e-13 
Ar 7.33052 30.6639 21.1307 1.78809e-14 -1.9203e-14 -3.77869e-14 
Ar 30.6568 7.3305 21.12 -1.66891e-14 2.40571e-14 -1.94845e-14 
Ar 7.33608 7.6337 2.24923 1.0771e-10 6.99419e-10 -6.58539e-09 
Ar 30.6644 30.6627 7.33844 -4.87994e-15 -7.44738e-15 4.17459e-15 
Ar 7.33418 30.6626 30.658 8.2893e-14 1.39911e-13 -2.61628e-13 
Ar 30.6586 7.32651 30.6574 -1.17153e-14 2.63832e-14 -1.63213e-14 
Ar 7.32636 7.3355 9.37782 1.4622e-07 4.48505e-06 0.000104071 
