32
comment
Ar 9.19934 6.2195 5.64443 -3.00357e+13 -6.49028e+13 -9.64658e+12 
Ar 117.578 7.34861 9.53436 137716 100359 48713.2 
Ar 9.57423 0.747511 8.22142 -18293.6 -8814.15 -2393.54 
Ar 4.50535e+10 9.73542e+10 1.44699e+10 1.50178e+13 3.24514e+13 4.82329e+12 
Ar 3.52488 0.714269 5.26609 87.6759 -198.464 -3.26479 
Ar 27828.6 23143.6 50153.6 7.83501e+06 6.53278e+06 1.4036e+07 
Ar 3.2377 0.431911 0.489756 315.565 252.349 461.768 
Ar 6.63496e+09 1.86224e+08 1.99234e+08 1.8957e+12 -1.86224e+12 -1.99234e+12 
Ar 9.06826 4230.85 4612.09 -3.82213e+06 4.32901e+06 4.71319e+06 
Ar 1806.6 3.04107 5.94765 1.91072e+06 -2.23655e+06 -2.35067e+06 
Ar 197680 153433 296952 6.18797e+07 4.80516e+07 9.29019e+07 
Ar 26.5773 4185.29 107.415 -163366 1.65295e+06 -987030 
Ar 3.58262 5.33721 5.69442 168.601 -220.291 125.7 
Ar 1.27055e+10 8.85134e+11 1.16998e+11 2.7033e+12 1.88326e+14 2.48932e+13 
Ar 8.19708 3.83282e+06 3.15449 -2.78589e+08 9.1268e+08 -8.89312e+08 
Ar 1.59026 4.53257 3.28734 -3.49011e+07 -2.73545e+07 -5.34746e+07 
Ar 6.69963 2.03731 1.2654 -174.681 -70.49 401.098 
Ar 3.61822 2.81387 189.05 -1.87143e+06 -710767 141342 
Ar 7.89102 1.08583 2.17344 -66.4394 179.373 -115.98 
Ar 5.83319 9.66304 9.87884 58.6155 -93.7252 -67.7707 
Ar 2654.11 772.586 10328.5 604836 -7.64311e+06 2.05301e+06 
Ar 7.94356 0.241659 7.87348 333.17 -233.861 25.2557 
Ar 1.05646 8.69874 9.05419 378.736 -268.606 -91.5247 
Ar 34.6757 19717.7 107.942 -302528 3.82522e+06 -1.02734e+06 
Ar 8.46159 9.24181 1.49373 58.2941 136.257 156.136 
Ar 3.86475 9.0872 6.42178 -92.212 13918.1 -5835.94 
Ar 7.72609 6.69028 2.96569 -14.54 151.368 40.0262 
Ar 5.61083 7.25645 10.3283 600.431 500.983 242.118 
Ar 3.81179 2.5277 1.52738 13623.8 4596.33 -6166.65 
Ar 253.067 6.10826 0.827114 153638 5881.5 54281.5 
Ar 4.6815e+10 4.76878e+12 4.41611e+11 -4.6815e+14 4.33526e+15 -4.41611e+15 
Ar 5.65538e+06 1.94292e+06 3.37789 5.65548e+09 1.94301e+09 -8.84184e+08 
