32
comment
Ar -0.881307 -0.302616 10.4152 -81.6583 -68.2004 242.214 
Ar 3.31887 10.1539 1.19632 77.183 174.975 -33.3414 
Ar -7.70485 6.51038 10.5041 -240.345 151.404 183.117 
Ar 4.56427 -13.9102 -11.5701 106.146 -323.492 -269.073 
Ar 6.80509 -5.7487 5.50611 97.095 -194.854 5.7234 
Ar 2.32578 0.923367 7.93823 54.0879 -39.6891 1.12158 
Ar 4.47718 1.15129 21.3135 42.9577 26.7741 312.174 
Ar 0.599074 12.6824 2.38328 13.9319 294.939 -66.9005 
Ar -5.08032 2.57153 8.67696 -179.31 -123.685 201.79 
Ar 3.85076 7.47388 13.0171 89.5525 -9.67731 241.561 
Ar -0.618971 3.2492 -2.29769 -75.5575 -46.7628 -114.597 
Ar -1.53685 3.08541 0.970675 -35.7408 -50.5719 22.5738 
Ar 5.9634 -3.40427 6.07694 77.521 -262.657 18.9987 
Ar 4.84456 3.50805 15.6349 112.664 -101.906 180.115 
Ar 0.214625 9.9179 3.96069 -56.1715 108.323 -91.3793 
Ar 12.2203 1.34627 -5.37959 284.192 -91.017 -247.432 
Ar 4.3202 -0.801946 1.73944 -83.0186 -79.8127 40.4521 
Ar -8.19617 5.02154 -11.562 -312.934 55.6172 -330.047 
Ar 8.1327 4.43672 0.91597 5.64408 103.179 -39.8612 
Ar 7.78535 -3.8167 -2.84655 58.729 -88.7604 -66.1989 
Ar -9.71456 1.79127 3.22023 -409.408 -19.5053 -47.4366 
Ar 16.7267 -7.98314 7.76797 266.667 -246.817 -2.83797 
Ar 24.2944 -7.77252 14.2034 381.498 -180.756 146.824 
Ar 13.1785 9.05971 7.06504 184.152 210.691 41.9777 
Ar 10.4329 13.9819 6.54403 59.1381 141.672 152.187 
Ar -0.453246 10.1321 13.3478 -132.866 52.1416 249.251 
Ar 7.13744 11.5121 4.00724 -17.5013 145.397 32.0288 
Ar -0.945783 10.0847 -4.44317 -144.321 112.202 -103.33 
Ar 14.8594 6.76177 7.01474 162.08 -26.2379 40.8078 
Ar 12.5005 5.91836 9.22833 168.384 -45.852 31.1239 
Ar 12.4475 2.81823 6.50418 105.988 -56.7853 -32.2285 
Ar 4.42907 8.91309 12.146 -19.3241 84.9556 160.139 
