32
comment
Ar 30.4923 30.4923 9.06403e-10 -1.41072e-06 -1.17822e-06 4.18442e-06 
Ar 3.11812e-10 30.4923 30.4923 1.33339e-06 3.0228e-06 -5.76006e-07 
Ar 30.4923 5.59558e-10 30.4923 -4.15215e-06 2.61562e-06 3.16348e-06 
Ar 4.10911e-10 35.8206 35.8206 1.83375e-06 -5.58856e-06 -4.64843e-06 
Ar 30.4923 30.4923 25.164 1.67737e-06 -3.36626e-06 9.88553e-08 
Ar 2.12713e-10 30.4923 19.8357 9.34407e-07 -6.85669e-07 1.9366e-08 
Ar 30.4923 1.13615e-10 19.8357 7.42115e-07 4.62543e-07 5.39301e-06 
Ar 6.40657e-11 1.1046e-09 25.164 2.40684e-07 5.09529e-06 -1.15575e-06 
Ar 30.4923 19.8357 7.57755e-10 -3.09772e-06 -2.13676e-06 3.48607e-06 
Ar 3.61361e-10 19.8357 30.4923 1.54708e-06 -1.67193e-07 4.17314e-06 
Ar 30.4923 25.164 30.4923 -1.30534e-06 -8.07872e-07 -1.97979e-06 
Ar 35.8206 25.164 1.13615e-10 -6.17448e-07 -8.73666e-07 3.89979e-07 
Ar 30.4923 19.8357 25.164 1.33922e-06 -4.53761e-06 3.28216e-07 
Ar 4.10911e-10 19.8357 19.8357 1.94636e-06 -1.76051e-06 3.11161e-06 
Ar 30.4923 25.164 19.8357 -9.70414e-07 1.87136e-06 -1.57865e-06 
Ar 1.05505e-09 25.164 25.164 4.90962e-06 -1.57239e-06 -4.27457e-06 
Ar 19.8357 30.4923 1.63164e-10 -1.43422e-06 -1.37883e-06 6.9884e-07 
Ar 25.164 30.4923 30.4923 -5.4062e-06 9.60797e-07 -5.70185e-06 
Ar 19.8357 4.10911e-10 30.4923 9.74954e-08 1.7825e-06 -6.8864e-07 
Ar 25.164 35.8206 35.8206 1.01459e-06 -1.5334e-06 -1.14363e-06 
Ar 19.8357 30.4923 25.164 -7.07284e-06 -3.36978e-07 -8.19501e-07 
Ar 25.164 30.4923 19.8357 4.60687e-06 -4.26396e-06 -4.90381e-08 
Ar 19.8357 35.8206 19.8357 6.59064e-06 -3.12269e-06 2.53648e-06 
Ar 25.164 8.07305e-10 25.164 3.18135e-06 3.63984e-06 7.25185e-07 
Ar 19.8357 19.8357 5.59558e-10 1.02164e-06 2.44748e-06 2.62914e-06 
Ar 25.164 19.8357 30.4923 -2.29536e-06 9.00773e-07 4.30598e-06 
Ar 19.8357 25.164 30.4923 -3.02358e-07 2.51184e-06 5.5331e-07 
Ar 25.164 25.164 35.8206 -2.49324e-06 1.93838e-06 -1.78509e-06 
Ar 19.8357 19.8357 25.164 2.80004e-06 -4.53289e-07 7.04985e-07 
Ar 25.164 19.8357 19.8357 2.90896e-06 -7.92137e-07 5.37677e-07 
Ar 19.8357 25.164 19.8357 1.83101e-06 -9.81007e-07 -5.5678e-07 
Ar 25.164 25.164 25.164 -3.33837e-07 1.46767e-06 2.76652e-06 
