32
comment
Ar 6.79294 3.92563 1.35419 4335.5 1539.59 209.37 
Ar 0.459411 3.6061 2.46142 102.376 190.904 -19.7638 
Ar 1.28553 0.867472 3.67398 -280.053 185.225 233.297 
Ar 0.709569 4.2083 7.93226 353.938 -9162.95 -2454.76 
Ar 3.15605 1.54957 5.27897 90.5052 -199.125 -1.80977 
Ar 0.305282 2.41024 7.88654 59.5297 -27.8325 -2.45838 
Ar 2.86629 0.154108 9.60096 42.8692 28.8905 310.281 
Ar 0.119419 1.62279 4.86185 68.4467 274.335 -116.339 
Ar 1.64387 7.198 1.12579 -178.621 -131.944 210.046 
Ar 0.505619 7.82436 3.96063 95.1049 -15.2129 241.602 
Ar 2.19166 4.99251 2.02367 -100.899 -55.3773 -79.6527 
Ar 10.3243 4.98206 0.127149 -37.8858 -50.4809 23.637 
Ar 3.06395 6.41925 5.37179 82.945 -277.477 30.628 
Ar 1.35165e+09 9.41632e+10 1.24466e+10 2.7033e+12 1.88326e+14 2.48932e+13 
Ar 2.32292 5.87024 7.36551 -60.7318 116.144 -104.261 
Ar 1.58532 4.75663 3.85851 297.227 -95.0371 -297.38 
Ar 7.4318 2.1904 0.233253 -85.4355 -77.878 47.6111 
Ar 6.90178 7.70613 37.2519 -1.87143e+06 -710767 141342 
Ar 7.91512 0.577597 2.41047 3.45176 107.568 -41.5425 
Ar 5.58476 10.0454 10.1642 59.284 -90.3859 -67.864 
Ar 555.64 766.555 2147.71 604836 -7.64311e+06 2.05301e+06 
Ar 6.72551 1.27227 7.84708 265.873 -247.1 -13.836 
Ar 9.98359 9.5577 8.69601 379.988 -182.14 146.156 
Ar 36.35 4093.55 108.046 -302528 3.82522e+06 -1.02734e+06 
Ar 8.21493 8.66294 0.842238 59.0074 139.235 154.138 
Ar 4.52224 8.16402 4.01097 -137.096 45.6609 254.607 
Ar 7.79047 6.06334 2.8071 -18.3397 147.091 32.2487 
Ar 4.46623 5.88065 9.96088 -144.439 113.695 -107.701 
Ar 8.77364 7.73933 5.48654 159.439 -28.6569 41.3362 
Ar 49.6288 2.44598 4.28485 153638 5881.5 54281.5 
Ar 8.4625 4.95 7.70672 102.535 -55.6248 -34.2845 
Ar 5.14086 5.73737 6.14177 -31.181 91.8381 158.628 
