32
comment
Ar 27.4378 16.0578 18.1751 -6.99122e-13 1.44109e-12 -5.77228e-13 
Ar 21.7254 22.8841 2.12626 -4.62682e-13 -6.34719e-13 -1.56766e-12 
Ar 33.8362 1.69066 9.84591 1.39154e-13 4.12202e-13 -7.85862e-14 
Ar 23.7599 24.8987 21.7262 -1.26179e-14 2.71428e-14 -1.60409e-14 
Ar 30.8135 13.9234 2.67466 -1.11691e-12 -1.68085e-13 -2.80952e-13 
Ar 2.08198 8.16382 16.3064 1.85865e-12 1.01751e-12 1.37244e-12 
Ar 4.00511 16.1712 30.6392 1.88282e-15 1.21454e-14 -4.57319e-15 
Ar 11.8388 18.849 33.5045 -8.38011e-12 -1.46328e-11 -1.39426e-11 
Ar 13.0379 31.0628 35.0983 -5.59617e-14 -3.64768e-13 2.22814e-14 
Ar 15.2583 1.53405 32.692 -5.72064e-13 -8.45672e-13 2.47501e-12 
Ar 7.76713 1.76731 30.1961 3.67413e-13 -1.33059e-13 -7.30191e-13 
Ar 16.3159 22.6358 16.1712 3.5054e-14 -9.46502e-14 -9.24353e-15 
Ar 7.73778 10.5393 4.652 1.79671e-13 5.66093e-13 1.22796e-12 
Ar 13.1458 4.4222 23.8115 -6.62261e-14 -2.26624e-14 -1.26106e-13 
Ar 25.2897 8.56818 33.2903 -2.86045e-13 1.77309e-13 -1.28207e-13 
Ar 14.7025 14.1504 28.9998 2.76955e-16 7.95766e-16 2.80782e-15 
Ar 11.1662 8.28385 18.1377 -2.55816e-12 1.09987e-11 -1.61617e-11 
Ar 1.30433 5.62722 18.5627 1.04276e-15 -1.02901e-15 1.98012e-15 
Ar 24.8832 19.348 28.9097 -1.67107e-12 -1.54312e-12 -5.24761e-12 
Ar 2.68953 8.54329 9.83378 -5.42025e-15 -2.14029e-14 1.54976e-14 
Ar 2.50307 21.6267 35.6698 -5.52928e-15 7.41227e-15 9.94776e-15 
Ar 2.95223 6.61034 14.1307 5.03321e-12 -4.752e-12 -4.27636e-12 
Ar 31.3166 6.22277 25.6208 -4.68044e-12 -8.80181e-13 -2.34412e-12 
Ar 15.77 12.8978 35.2255 1.14184e-12 -1.07293e-11 -2.61676e-12 
Ar 1.58666 11.0091 1.8032 -2.31011e-10 -9.19434e-11 -1.10303e-11 
Ar 31.4235 1.84176 10.1912 9.80933e-16 -1.28971e-16 9.66171e-17 
Ar 14.9665 20.4534 1.24904 -4.9239e-13 -4.17165e-13 -1.93903e-14 
Ar 11.695 32.2809 20.7105 2.15802e-12 -2.92998e-12 5.21859e-12 
Ar 14.9315 31.6412 5.11716 -5.11765e-16 3.478e-15 -6.6416e-16 
Ar 7.63038 29.1908 1.7779 4.98206e-11 1.23056e-11 -2.51471e-11 
Ar 11.3751 7.67687 0.130559 -6.28057e-17 -1.76116e-16 1.27145e-15 
Ar 6.06459 12.7911 1.58893 1.20204e-14 4.07554e-14 6.6162e-15 
