32
comment
Ar -2.59613 -1.73482 15.5017 -81.6583 -68.2004 242.214 
Ar 4.93971 13.8284 0.496153 77.183 174.975 -33.3414 
Ar -12.7521 9.68987 14.3495 -240.345 151.404 183.117 
Ar 6.79334 -20.7035 -17.2207 106.146 -323.492 -269.073 
Ar 8.84408 -9.84063 5.6263 97.095 -194.854 5.7234 
Ar 3.46163 0.0898947 7.96178 54.0879 -39.6891 1.12158 
Ar 5.37929 1.71355 27.8691 42.9577 26.7741 312.174 
Ar 0.891645 18.8761 0.978371 13.9319 294.939 -66.9005 
Ar -8.84582 -0.025866 12.9146 -179.31 -123.685 201.79 
Ar 5.73136 7.27065 18.0899 89.5525 -9.67731 241.561 
Ar -2.20568 2.26718 -4.70424 -75.5575 -46.7628 -114.597 
Ar -2.28741 2.0234 1.44473 -35.7408 -50.5719 22.5738 
Ar 7.59134 -8.92007 6.47591 77.521 -262.657 18.9987 
Ar 7.21051 1.36803 19.4174 112.664 -101.906 180.115 
Ar -0.964976 12.1927 2.04172 -56.1715 108.323 -91.3793 
Ar 18.1883 -0.56509 -10.5757 284.192 -91.017 -247.432 
Ar 2.57681 -2.47801 2.58894 -83.0186 -79.8127 40.4521 
Ar -14.7678 6.1895 -18.493 -312.934 55.6172 -330.047 
Ar 8.25122 6.60348 0.0788858 5.64408 103.179 -39.8612 
Ar 9.01866 -5.68066 -4.23673 58.729 -88.7604 -66.1989 
Ar -18.3121 1.38166 2.22406 -409.408 -19.5053 -47.4366 
Ar 22.3267 -13.1663 7.70837 266.667 -246.817 -2.83797 
Ar 32.3059 -11.5684 17.2867 381.498 -180.756 146.824 
Ar 17.0457 13.4842 7.94657 184.152 210.691 41.9777 
Ar 11.6748 16.957 9.73996 59.1381 141.672 152.187 
Ar -3.24344 11.2271 18.5821 -132.866 52.1416 249.251 
Ar 6.76991 14.5654 4.67984 -17.5013 145.397 32.0288 
Ar -3.97651 12.441 -6.61309 -144.321 112.202 -103.33 
Ar 18.2631 6.21077 7.8717 162.08 -26.2379 40.8078 
Ar 16.0366 4.95547 9.88193 168.384 -45.852 31.1239 
Ar 14.6732 1.62574 5.82738 105.988 -56.7853 -32.2285 
Ar 4.02326 10.6972 15.5089 -19.3241 84.9556 160.139 
