32
comment
Ar -3.08608 -2.14403 16.955 -81.6583 -68.2004 242.214 
Ar 5.40281 14.8782 0.296105 77.183 174.975 -33.3414 
Ar -14.1942 10.5983 15.4482 -240.345 151.404 183.117 
Ar 7.43021 -22.6444 -18.8351 106.146 -323.492 -269.073 
Ar 9.42665 -11.0097 5.66064 97.095 -194.854 5.7234 
Ar 3.78615 -0.14824 7.96851 54.0879 -39.6891 1.12158 
Ar 5.63704 1.87419 29.7422 42.9577 26.7741 312.174 
Ar 0.975236 20.6458 0.576968 13.9319 294.939 -66.9005 
Ar -9.92168 -0.767978 14.1253 -179.31 -123.685 201.79 
Ar 6.26868 7.21259 19.5393 89.5525 -9.67731 241.561 
Ar -2.65902 1.9866 -5.39182 -75.5575 -46.7628 -114.597 
Ar -2.50186 1.71997 1.58017 -35.7408 -50.5719 22.5738 
Ar 8.05647 -10.496 6.58991 77.521 -262.657 18.9987 
Ar 7.8865 0.756596 20.498 112.664 -101.906 180.115 
Ar -1.30201 12.8426 1.49345 -56.1715 108.323 -91.3793 
Ar 19.8934 -1.11119 -12.0603 284.192 -91.017 -247.432 
Ar 2.0787 -2.95689 2.83165 -83.0186 -79.8127 40.4521 
Ar -16.6454 6.52321 -20.4733 -312.934 55.6172 -330.047 
Ar 8.28509 7.22256 -0.160281 5.64408 103.179 -39.8612 
Ar 9.37103 -6.21322 -4.63392 58.729 -88.7604 -66.1989 
Ar -20.7686 1.26463 1.93944 -409.408 -19.5053 -47.4366 
Ar 23.9267 -14.6472 7.69134 266.667 -246.817 -2.83797 
Ar 34.5949 -12.6529 18.1677 381.498 -180.756 146.824 
Ar 18.1506 14.7484 8.19844 184.152 210.691 41.9777 
Ar 12.0297 17.8071 10.6531 59.1381 141.672 152.187 
Ar -4.04063 11.5399 20.0776 -132.866 52.1416 249.251 
Ar 6.66491 15.4378 4.87201 -17.5013 145.397 32.0288 
Ar -4.84244 13.1142 -7.23307 -144.321 112.202 -103.33 
Ar 19.2356 6.05335 8.11655 162.08 -26.2379 40.8078 
Ar 17.0469 4.68036 10.0687 168.384 -45.852 31.1239 
Ar 15.3092 1.28503 5.63401 105.988 -56.7853 -32.2285 
Ar 3.90732 11.2069 16.4697 -19.3241 84.9556 160.139 
