32
comment
Ar 14.3142 10.9275 31.3837 8.10665e-15 7.83931e-15 -1.26789e-15 
Ar 27.6021 33.6732 9.6707 3.93404e-13 -9.58085e-13 7.14092e-13 
Ar 10.7318 10.9125 5.27453 1.11682e-13 8.40189e-14 8.33649e-14 
Ar 23.551 7.19194 31.922 -1.93964e-12 7.81539e-13 -1.49014e-13 
Ar 18.7264 7.3531 5.43405 3.62056e-13 2.96554e-13 1.96877e-12 
Ar 4.10708 35.416 23.3745 2.73937e-14 -4.80324e-15 1.46134e-14 
Ar 7.52817 24.9819 24.1338 2.53951e-13 7.18688e-13 4.53002e-13 
Ar 2.48577 12.7985 29.5027 1.17701e-13 -1.77138e-13 -6.22394e-14 
Ar 1.24219 27.387 14.5747 2.38885e-12 4.78348e-12 3.26585e-13 
Ar 31.137 10.4339 9.84086 -7.91234e-13 6.94014e-14 -1.3385e-13 
Ar 2.35141 5.48994 34.9803 2.40089e-10 2.8551e-10 -5.38223e-11 
Ar 1.86749 8.14296 24.9819 3.13735e-11 -4.72631e-11 -6.22299e-12 
Ar 18.9048 30.9978 3.19228 -1.49341e-11 3.97362e-11 2.89158e-12 
Ar 25.6559 11.9653 17.9883 -1.16911e-12 -7.62308e-13 -1.91624e-12 
Ar 23.6179 25.7726 2.69228 7.22282e-13 6.0956e-12 3.87623e-12 
Ar 32.3342 5.87533 25.9978 -7.25695e-11 -3.18225e-11 -1.11628e-11 
Ar 27.7812 2.68808 1.13673 5.41078e-12 6.35418e-12 -7.85673e-12 
Ar 33.2168 19.6152 15.1191 -3.474e-12 -3.14021e-12 -5.21321e-13 
Ar 24.5904 26.2263 10.2939 5.74359e-14 -9.3527e-15 7.73763e-14 
Ar 34.0393 15.6645 12.5411 -5.13522e-15 5.24959e-14 5.54841e-15 
Ar 7.53577 5.23222 25.9995 4.65116e-11 -3.89889e-11 1.1279e-11 
Ar 24.7504 7.66238 33.7051 -7.16534e-14 -4.59129e-14 -2.60899e-14 
Ar 10.523 2.07539 26.2183 -5.70591e-16 1.13844e-15 -9.57587e-17 
Ar 5.02621 2.17946 34.4653 1.22679e-12 2.33271e-12 -2.45483e-12 
Ar 9.86349 35.02 24.6054 7.29174e-17 3.56616e-17 7.33086e-17 
Ar 25.9004 21.477 8.77383 -4.84414e-14 -6.84182e-14 5.98781e-14 
Ar 18.9887 4.07345 33.1346 1.00517e-10 -7.7078e-11 -2.75326e-11 
Ar 6.06805 8.90124 5.10381 -5.51966e-12 7.04024e-12 1.16427e-11 
Ar 4.64843 15.4389 19.2093 -5.2007e-13 -1.51902e-12 -3.04631e-12 
Ar 22.0489 2.21951 11.3783 1.65406e-12 4.50105e-12 -4.57087e-12 
Ar 15.6711 24.8093 33.587 -4.07757e-12 -3.36841e-12 -5.20527e-12 
Ar 24.6059 19.0564 7.38107 5.91491e-15 5.22793e-16 1.08137e-15 
