32
comment
Ar 5.35928 34.0472 35.284 -4.48798e-14 3.90259e-14 6.42911e-14 
Ar 32.9599 1.21897 21.9913 2.4195e-12 -1.45353e-12 -2.88097e-12 
Ar 3.16157 5.51007 14.3917 1.92875e-12 -1.41988e-12 2.46858e-13 
Ar 21.3544 3.36079 3.29908 1.1639e-13 1.46525e-13 3.78736e-13 
Ar 12.3428 7.42829 29.8781 -9.71699e-16 7.04986e-15 9.05685e-17 
Ar 15.5621 12.1695 26.8656 8.72875e-11 3.551e-11 -1.19447e-10 
Ar 26.2896 18.9168 0.0300794 -1.16263e-10 9.08425e-11 -9.08857e-11 
Ar 1.41835 33.5834 14.5123 3.4057e-08 -6.6026e-08 2.05629e-08 
Ar 11.1299 21.0099 35.3355 -9.5039e-14 -2.19718e-13 -4.6674e-14 
Ar 17.0255 12.6421 20.7526 -3.03668e-11 5.64113e-12 -3.19394e-11 
Ar 29.7496 16.2133 2.73128 -1.8842e-10 -1.31602e-10 5.40824e-11 
Ar 22.3877 15.9135 18.9169 -6.65406e-15 1.85991e-14 4.5896e-15 
Ar 0.0162526 0.490849 10.7521 -2.34542e-12 -4.54453e-12 2.83342e-13 
Ar 23.8445 8.74497 18.849 -1.00829e-15 -8.30748e-15 1.03247e-14 
Ar 33.0405 26.8249 24.0361 8.55341e-14 3.39419e-13 1.28817e-13 
Ar 12.856 12.6539 1.1127 2.31611e-12 1.64133e-12 3.89267e-13 
Ar 2.54296 2.92462 18.498 -1.48498e-13 -1.59906e-13 -6.66719e-14 
Ar 10.8818 12.3108 23.6489 1.06841e-10 6.57437e-12 -4.84458e-11 
Ar 6.38834 15.8191 2.72293 -2.10869e-14 9.4757e-15 1.90049e-14 
Ar 28.8466 19.8578 13.9382 3.92111e-16 3.31731e-16 -2.64318e-17 
Ar 25.1239 7.71139 14.4549 7.41025e-15 5.5738e-15 1.55103e-14 
Ar 18.3887 27.1226 33.4338 -1.13669e-12 -1.93711e-12 -5.6225e-13 
Ar 3.0119 22.6674 13.2722 -4.08402e-15 2.73421e-14 -1.65179e-14 
Ar 25.7607 16.6729 4.69964 -3.22783e-10 3.51193e-11 -2.95447e-10 
Ar 16.562 8.89344 32.7303 1.55408e-14 1.6138e-15 -6.10309e-15 
Ar 26.5317 12.2696 6.14079 6.7675e-15 -5.38696e-15 -6.03641e-19 
Ar 31.8187 8.23386 11.2243 2.1079e-11 -4.62934e-12 6.103e-12 
Ar 35.1592 2.25459 22.0296 -8.31837e-15 -3.13774e-15 1.37189e-14 
Ar 14.3663 7.54572 5.63051 -4.97133e-19 1.55663e-16 4.42139e-17 
Ar 22.474 33.9633 25.6467 -3.93866e-12 -9.63288e-12 -8.71753e-12 
Ar 25.0233 26.8303 26.1204 1.70859e-16 -3.43396e-17 1.83192e-16 
Ar 23.9462 9.6706 17.7386 3.52858e-05 0.000321033 -0.000385109 
