32
comment
Ar 2.45908 2.48704 0.511289 -80.4704 -67.7555 245.572 
Ar 0.164227 2.99768 2.56087 79.5962 175.328 -32.3989 
Ar 2.12505 0.320138 3.01557 -240.752 153.855 184.354 
Ar 0.223023 9.90465 10.0081 106.247 -324.589 -270.009 
Ar 2.83373 2.22043 5.27152 96.7722 -195.485 4.9867 
Ar 0.114782 2.54654 7.89112 55.2152 -39.8767 -0.0856478 
Ar 2.72024 0.057397 8.54453 42.9875 27.8496 311.246 
Ar 0.0308889 0.620802 5.11917 15.8221 296.4 -67.4404 
Ar 2.25343 7.62957 0.425228 -179.367 -124.467 203.353 
Ar 0.189515 7.8685 3.13773 91.0681 -10.9812 242.006 
Ar 2.47096 5.16152 2.39008 -76.2042 -47.1953 -113.847 
Ar 10.4511 5.15381 0.0478632 -36.6741 -50.5536 22.9956 
Ar 2.79302 7.33636 5.29973 77.859 -264.924 18.8073 
Ar 0.237568 7.67589 8.26821 113.682 -101.672 180.412 
Ar 2.51228 5.48799 7.69661 -55.9873 109.109 -92.9822 
Ar 0.59877 5.06889 4.73969 286.284 -90.945 -248.555 
Ar 7.71546 2.46264 0.0862052 -83.2197 -79.6709 41.6855 
Ar 4.60171 2.74685 1.93705 -314.99 55.6438 -330.465 
Ar 7.90102 0.217927 2.54661 4.85319 104.408 -39.5959 
Ar 5.38361 10.3509 10.3936 58.992 -89.2494 -66.8633 
Ar 7.02794 2.58869 5.16053 -412.276 -20.761 -46.9 
Ar 5.81989 2.11206 7.88212 266.671 -246.609 -5.14191 
Ar 8.69041 10.1759 8.19819 380.808 -181.406 146.668 
Ar 5.64693 0.445092 5.34806 184.955 214.284 42.0492 
Ar 8.01413 8.18665 0.32036 59.0943 140.848 152.903 
Ar 4.98068 7.99816 3.15414 -133.303 50.8119 250.1 
Ar 7.85253 5.56553 2.69735 -18.1078 145.699 32.1345 
Ar 4.9569 5.49585 10.3223 -144.348 112.51 -104.777 
Ar 8.22918 7.83403 5.34603 160.964 -27.0822 41.1298 
Ar 5.61384 7.79266 7.95496 168.57 -46.9562 30.7777 
Ar 8.111 5.14089 7.82142 104.486 -56.6009 -33.0948 
Ar 5.21918 5.43874 5.59652 -19.7082 85.4829 160.431 
