32
comment
Ar 1.0466 4.7422 27.3179 2.37002e-14 -6.47926e-15 -4.88592e-15 
Ar 15.5789 27.2148 12.1912 -1.19168e-12 2.03131e-12 -2.08562e-12 
Ar 6.59322 20.802 16.1116 2.49136e-12 -1.45363e-13 -9.81979e-13 
Ar 2.92521 1.99483 19.2262 1.3329e-14 2.80241e-16 -1.69542e-14 
Ar 10.3044 6.6912 1.63647 -2.35138e-13 2.96013e-13 -1.11024e-12 
Ar 16.4202 27.4366 26.1574 1.23575e-12 -1.37689e-12 -1.8912e-12 
Ar 21.4916 32.6831 19.6086 3.44598e-11 1.44392e-10 1.84861e-11 
Ar 7.80045 32.4185 29.9014 -4.94671e-15 2.45562e-14 5.6709e-15 
Ar 34.8042 25.4573 30.5625 -2.64398e-14 4.6422e-14 4.93995e-15 
Ar 11.7667 19.3512 7.78801 3.25589e-11 9.32182e-12 -3.07033e-11 
Ar 8.66053 22.0908 2.56945 9.73753e-15 2.30553e-14 9.91444e-15 
Ar 16.2905 20.6444 12.061 -3.81713e-11 2.57083e-11 2.98846e-11 
Ar 12.8905 33.3806 18.6039 -5.91172e-14 -1.93819e-14 4.34592e-15 
Ar 35.5264 26.382 1.29687 -1.17138e-14 -1.18867e-15 -6.06907e-15 
Ar 5.22759 26.0022 3.47662 -9.18343e-13 2.36782e-13 1.53211e-12 
Ar 4.23127 21.3897 0.400936 -7.40741e-14 -5.30106e-14 1.54281e-14 
Ar 6.72071 4.6412 30.38 4.35643e-14 -6.03214e-14 1.38024e-14 
Ar 0.747228 14.3294 27.0386 3.35344e-14 -2.4885e-14 -2.98468e-14 
Ar 24.8044 10.6983 34.7425 -3.56751e-13 -1.47502e-13 -2.12486e-13 
Ar 22.7534 1.94547 20.2226 -8.00289e-08 -3.22373e-07 3.89045e-08 
Ar 28.5412 2.82279 17.7086 -3.27762e-13 1.9705e-12 1.24795e-14 
Ar 9.12672 3.70737 12.0297 3.86735e-13 -1.84818e-12 2.5678e-12 
Ar 11.743 6.09502 1.03956 1.87865e-15 -5.73785e-16 -7.20675e-16 
Ar 33.43 15.1557 11.3555 -3.94712e-12 1.57333e-12 1.65607e-12 
Ar 4.87884 18.1824 6.63918 3.67167e-11 3.71345e-11 -3.44594e-11 
Ar 25.5195 17.9881 22.131 1.79865e-13 1.39557e-13 -1.6621e-13 
Ar 6.14279 5.26707 9.16925 -1.58074e-12 4.72384e-12 4.82138e-12 
Ar 29.9243 11.2338 2.96199 1.14266e-14 1.03397e-14 6.95725e-15 
Ar 0.449199 22.9922 6.56523 1.30844e-13 1.25774e-13 -4.26431e-13 
Ar 14.8575 18.3278 17.8042 -5.95354e-12 1.96885e-11 4.38928e-11 
Ar 11.8139 23.8355 1.81766 -1.56094e-12 -1.70239e-13 9.45152e-13 
Ar 8.05394 10.979 3.36461 -2.05751e-13 5.90272e-13 1.14265e-12 
