32
comment
Ar 1.81342 1.948 2.42214 -81.6583 -68.2004 242.214 
Ar 0.77183 4.37975 2.29659 77.183 174.975 -33.3414 
Ar 0.226547 1.51404 4.46117 -240.345 151.404 183.117 
Ar 1.06146 -3.23492 -2.69073 106.146 -323.492 -269.073 
Ar 3.60095 0.681465 5.31723 97.095 -194.854 5.7234 
Ar 0.540879 2.23311 7.90122 54.0879 -39.6891 1.12158 
Ar 3.05958 0.267741 11.0117 42.9577 26.7741 312.174 
Ar 0.139319 2.94939 4.591 13.9319 294.939 -66.9005 
Ar 0.836903 6.65315 2.0179 -179.31 -123.685 201.79 
Ar 0.895525 7.79323 5.04561 89.5525 -9.67731 241.561 
Ar 1.87443 4.79237 1.48403 -75.5575 -46.7628 -114.597 
Ar -0.357408 4.75428 0.225738 -35.7408 -50.5719 22.5738 
Ar 3.40521 5.26343 5.44999 77.521 -262.657 18.9987 
Ar 1.12664 6.87094 9.69115 112.664 -101.906 180.115 
Ar 2.06828 6.34323 6.97621 -56.1715 108.323 -91.3793 
Ar 2.84192 4.34983 2.78568 284.192 -91.017 -247.432 
Ar 7.05981 1.83187 0.404521 -83.0186 -79.8127 40.4521 
Ar 2.13066 3.18617 -0.670474 -312.934 55.6172 -330.047 
Ar 7.94644 1.03179 2.23139 5.64408 103.179 -39.8612 
Ar 5.84729 -0.887604 -0.661989 58.729 -88.7604 -66.1989 
Ar 3.79592 2.43495 4.78563 -409.408 -19.5053 -47.4366 
Ar 7.92667 0.161827 7.86162 266.667 -246.817 -2.83797 
Ar 11.705 -1.80756 9.35824 381.498 -180.756 146.824 
Ar 7.10152 2.10691 5.67978 184.152 210.691 41.9777 
Ar 8.48138 9.30672 1.52187 59.1381 141.672 152.187 
Ar 3.93134 8.41142 5.12251 -132.866 52.1416 249.251 
Ar 7.71499 6.71397 2.95029 -17.5013 145.397 32.0288 
Ar 3.81679 6.38202 -1.0333 -144.321 112.202 -103.33 
Ar 9.5108 7.62762 5.66808 162.08 -26.2379 40.8078 
Ar 6.94384 7.43148 8.20124 168.384 -45.852 31.1239 
Ar 8.94988 4.69215 7.56772 105.988 -56.7853 -32.2285 
Ar 5.06676 6.10956 6.86139 -19.3241 84.9556 160.139 
