32
comment
Ar 13.8101 29.8999 12.0264 5.63436e-13 -1.80503e-12 1.37266e-12 
Ar 5.60283 32.0087 24.5656 7.83403e-14 -2.59609e-13 2.71986e-13 
Ar 19.1155 3.64612 6.70947 3.076e-07 1.40715e-08 -3.00385e-07 
Ar 16.3695 0.0607999 31.5561 5.00374e-13 8.44466e-14 1.78622e-13 
Ar 18.1248 20.4335 8.97391 -5.47395e-12 -5.30449e-12 -1.21416e-11 
Ar 21.0754 17.5251 15.1247 6.39323e-12 6.4547e-12 1.3295e-11 
Ar 25.0597 9.06333 7.38814 -5.35911e-11 -2.33775e-11 -4.73565e-11 
Ar 27.9111 30.7677 14.5612 -4.26801e-13 -3.32044e-13 -1.22062e-13 
Ar 5.37084 3.88166 28.3729 1.50738e-12 -4.76126e-12 2.2879e-12 
Ar 4.2175 14.0662 1.83938 2.17518e-09 -7.05456e-10 1.7835e-09 
Ar 17.1321 25.7114 24.4605 1.94508e-15 1.94245e-15 -1.84525e-15 
Ar 19.9427 7.24792 15.3132 -1.01795e-13 -1.50899e-14 3.73389e-14 
Ar 4.84379 13.6802 14.215 4.41487e-13 5.74096e-12 -4.75453e-12 
Ar 6.80674 14.9062 3.96209 -5.88826e-13 4.44911e-13 -1.13647e-12 
Ar 4.06209 24.0913 9.72642 -9.8152e-16 -1.90705e-14 -5.32805e-15 
Ar 15.8025 0.425951 30.5131 -0.00170582 0.00109856 -0.00313808 
Ar 0.176038 30.3732 6.28018 3.03691e-15 9.55896e-15 -5.10455e-17 
Ar 24.8745 22.3442 0.579741 -6.50142e-15 1.87453e-14 5.27058e-15 
Ar 5.33158 7.31205 19.467 -1.98315e-12 8.05e-12 -1.8613e-11 
Ar 19.7593 29.6241 1.80763 2.15772e-12 -2.27849e-12 2.18479e-12 
Ar 2.93282 16.1258 13.9576 9.22717e-14 -7.71366e-14 2.19161e-13 
Ar 6.35487 9.92775 3.86593 6.0769e-11 -3.59526e-10 -6.97912e-11 
Ar 12.5001 25.9627 2.7986 -7.73893e-12 1.8909e-12 -3.22368e-12 
Ar 14.582 35.0096 32.4008 -1.72965e-12 3.53978e-12 -3.4125e-12 
Ar 4.63538 10.1369 26.0077 -5.52659e-12 -3.68206e-11 8.34874e-12 
Ar 5.59772 28.7309 7.99542 8.59271e-14 -1.07851e-13 1.21483e-14 
Ar 17.3416 3.72723 4.97718 4.81733e-15 -1.33742e-15 9.55782e-16 
Ar 25.206 3.89325 6.63197 -2.34427e-17 -2.84724e-17 1.80602e-16 
Ar 5.45591 13.8404 18.1587 -2.28518e-14 2.49549e-16 -6.38535e-14 
Ar 33.4746 3.22469 29.152 -5.60115e-13 4.86411e-13 3.29542e-13 
Ar 4.07178 15.5632 7.83844 4.0235e-15 5.40266e-15 -1.06759e-15 
Ar 34.7307 13.7025 3.28792 4.72759e-17 8.29839e-16 -5.93521e-16 
