32
comment
Ar 9.19934 6.2195 5.64443 -3.00357e+13 -6.49028e+13 -9.64658e+12 
Ar 39.5385 8.44654 8.34268 137716 100359 48713.2 
Ar 5.83759 6.23871 9.79987 -5287.94 4700.99 5343.81 
Ar 9.0107e+09 1.94708e+10 2.89397e+09 1.50178e+13 3.24514e+13 4.82329e+12 
Ar 3.31459 1.19105 5.27371 87.5342 -198.894 -3.15892 
Ar 9277.05 7717.36 16719.7 7.83501e+06 6.53278e+06 1.4036e+07 
Ar 2.94344 0.206263 10.1592 42.9 29.0229 310.056 
Ar 2.08527e+09 1.86224e+08 1.99234e+08 1.8957e+12 -1.86224e+12 -1.99234e+12 
Ar 9.08901 3.4843 1.253 -5429.95 -138863 17318.3 
Ar 0.689714 7.78371 4.43495 108.543 -29.6471 282.916 
Ar 49420.9 38361.4 74240.1 6.18797e+07 4.80516e+07 9.29019e+07 
Ar 26.5773 470.695 107.415 -163366 1.65295e+06 -987030 
Ar 3.22096 5.91508 5.45051 101.675 -280.646 50.8268 
Ar 6.21759e+09 4.33151e+11 5.72544e+10 2.7033e+12 1.88326e+14 2.48932e+13 
Ar 8.19708 1.64264e+06 3.15449 -2.78589e+08 9.1268e+08 -8.89312e+08 
Ar 1.59026 4.53257 3.28734 -3.49011e+07 -2.73545e+07 -5.34746e+07 
Ar 7.24561 2.0917 0.427276 -241.697 -7.85838 329.29 
Ar 3.61822 2.81387 102.308 -1.87143e+06 -710767 141342 
Ar 7.92118 0.774895 2.33227 1.84328 112.905 -46.8922 
Ar 5.69148 9.88246 10.042 59.2777 -90.6514 -67.9596 
Ar 1454.98 772.586 5653.76 604836 -7.64311e+06 2.05301e+06 
Ar 7.20399 0.827821 7.822 265.801 -246.734 -14.0003 
Ar 0.147352 9.22955 8.95872 379.782 -182.512 145.731 
Ar 34.6757 10789.6 107.942 -302528 3.82522e+06 -1.02734e+06 
Ar 8.32102 8.91252 1.12042 58.8383 138.09 154.957 
Ar 4.27318 8.24203 4.47209 -139.386 40.9173 257.508 
Ar 7.76141 6.32904 2.86979 -15.0815 148.206 35.6313 
Ar 4.20816 6.08254 9.76486 -80.274 112.393 -111.538 
Ar 9.77849 7.99343 6.31938 1029.07 323.986 970.858 
Ar 136.817 2.51267 7.31154 153638 5881.5 54281.5 
Ar 7.4356 1.55835 11.422 10216.8 97645 -24989.5 
Ar 5.06214 5.90685 6.41735 -62.0126 94.7895 144.683 
