32
comment
Ar 2.53208 2.54821 0.291328 -81.4683 -68.0925 243.499 
Ar 0.093226 2.84001 2.59025 78.2821 175.075 -32.8718 
Ar 2.34156 0.182304 2.85001 -240.437 152.532 183.627 
Ar 0.12742 10.1964 10.2508 106.205 -323.812 -269.368 
Ar 2.7465 2.39612 5.26678 97.029 -195.014 5.50076 
Ar 0.065299 2.58236 7.89095 54.742 -39.7386 0.456173 
Ar 2.68156 0.0325213 8.26425 42.9764 27.4192 311.601 
Ar 0.0171714 0.354362 5.17966 14.7571 295.701 -67.0473 
Ar 2.41483 7.74138 0.242585 -179.318 -124.035 202.561 
Ar 0.107901 7.87805 2.92001 90.322 -10.2856 241.809 
Ar 2.53928 5.20383 2.49271 -75.7083 -46.883 -114.204 
Ar 10.484 5.19931 0.0272462 -36.2764 -50.5672 22.8201 
Ar 2.72307 7.57422 5.28276 77.6232 -263.723 18.9079 
Ar 0.135492 7.76761 8.10605 113.178 -102.028 180.039 
Ar 2.56269 5.39007 7.7799 -56.0345 108.549 -92.1578 
Ar 0.341614 5.15077 4.96296 285.224 -91.0116 -247.737 
Ar 7.79031 2.53433 0.0489432 -83.1219 -79.6624 41.1289 
Ar 4.88431 2.69676 2.2341 -313.375 55.6507 -329.861 
Ar 7.8965 0.124214 2.58228 5.19429 103.853 -39.6802 
Ar 5.33056 10.4311 10.4536 58.8835 -88.9952 -66.5613 
Ar 7.3981 2.60665 5.20303 -410.54 -19.5251 -47.4299 
Ar 5.57993 2.33398 7.88608 266.586 -246.587 -3.79219 
Ar 8.34755 10.339 8.06615 381.093 -181.131 146.757 
Ar 5.48093 0.25348 5.3103 184.155 211.932 41.896 
Ar 7.96094 8.05973 0.18288 59.1041 141.209 152.606 
Ar 5.1005 7.95215 2.92929 -133.002 51.4292 249.612 
Ar 7.86874 5.43451 2.66846 -17.9004 145.489 32.0764 
Ar 5.08681 5.39469 10.4162 -144.335 112.308 -104.103 
Ar 8.08411 7.85823 5.30907 161.433 -26.7098 40.987 
Ar 5.46214 7.83466 7.92721 168.518 -46.4046 30.9025 
Ar 8.01667 5.19189 7.85104 105.128 -56.7197 -32.7155 
Ar 5.23677 5.362 5.45221 -19.4206 85.1026 160.252 
