32
comment
Ar -3.49437 -2.48503 18.166 -81.6583 -68.2004 242.214 
Ar 5.78873 15.7531 0.129398 77.183 174.975 -33.3414 
Ar -15.3959 11.3553 16.3638 -240.345 151.404 183.117 
Ar 7.96094 -24.2619 -20.1805 106.146 -323.492 -269.073 
Ar 9.91213 -11.984 5.68925 97.095 -194.854 5.7234 
Ar 4.05659 -0.346686 7.97412 54.0879 -39.6891 1.12158 
Ar 5.85183 2.00806 31.303 42.9577 26.7741 312.174 
Ar 1.0449 22.1204 0.242466 13.9319 294.939 -66.9005 
Ar -10.8182 -1.38641 15.1342 -179.31 -123.685 201.79 
Ar 6.71644 7.1642 20.7471 89.5525 -9.67731 241.561 
Ar -3.03681 1.75279 -5.96481 -75.5575 -46.7628 -114.597 
Ar -2.68056 1.46711 1.69304 -35.7408 -50.5719 22.5738 
Ar 8.44408 -11.8093 6.6849 77.521 -262.657 18.9987 
Ar 8.44982 0.247068 21.3986 112.664 -101.906 180.115 
Ar -1.58286 13.3842 1.03655 -56.1715 108.323 -91.3793 
Ar 21.3144 -1.56628 -13.2974 284.192 -91.017 -247.432 
Ar 1.6636 -3.35595 3.03391 -83.0186 -79.8127 40.4521 
Ar -18.2101 6.80129 -22.1236 -312.934 55.6172 -330.047 
Ar 8.31331 7.73846 -0.359587 5.64408 103.179 -39.8612 
Ar 9.66467 -6.65703 -4.96491 58.729 -88.7604 -66.1989 
Ar -22.8156 1.16711 1.70226 -409.408 -19.5053 -47.4366 
Ar 25.26 -15.8813 7.67715 266.667 -246.817 -2.83797 
Ar 36.5023 -13.5567 18.9018 381.498 -180.756 146.824 
Ar 19.0714 15.8018 8.40833 184.152 210.691 41.9777 
Ar 12.3254 18.5154 11.414 59.1381 141.672 152.187 
Ar -4.70496 11.8006 21.3238 -132.866 52.1416 249.251 
Ar 6.5774 16.1648 5.03216 -17.5013 145.397 32.0288 
Ar -5.56404 13.6752 -7.74972 -144.321 112.202 -103.33 
Ar 20.046 5.92216 8.32059 162.08 -26.2379 40.8078 
Ar 17.8888 4.4511 10.2243 168.384 -45.852 31.1239 
Ar 15.8391 1.0011 5.47287 105.988 -56.7853 -32.2285 
Ar 3.8107 11.6317 17.2704 -19.3241 84.9556 160.139 
