32
comment
Ar 2.41145 2.44657 0.659386 -77.7135 -67.0205 248.432 
Ar 0.212352 3.10297 2.54155 80.8971 175.689 -31.9674 
Ar 1.98048 0.412802 3.12642 -241.163 155.084 185.24 
Ar 0.286782 9.70956 9.84586 106.286 -325.9 -270.974 
Ar 2.8917 2.10299 5.27435 96.4403 -196.001 4.39002 
Ar 0.148001 2.52258 7.89095 55.5144 -40.0058 -0.481355 
Ar 2.74604 0.0741837 8.73121 42.9875 28.1005 311.035 
Ar 0.0407012 0.798784 5.07855 16.9629 296.867 -67.9967 
Ar 2.14579 7.55476 0.547436 -179.405 -124.913 204.031 
Ar 0.244328 7.86174 3.28297 91.6552 -11.5805 242.11 
Ar 2.42505 5.13309 2.32188 -76.8756 -47.5944 -113.449 
Ar 10.429 5.12348 0.0616956 -36.9187 -50.5418 23.1124 
Ar 2.83982 7.17709 5.31101 78.1682 -266.023 18.8271 
Ar 0.3059 7.61513 8.37666 114.104 -100.673 181.203 
Ar 2.47869 5.55363 7.6406 -55.9516 109.757 -93.7629 
Ar 0.770802 5.01434 4.59026 287.191 -90.9094 -249.632 
Ar 7.66551 2.41482 0.111338 -83.2847 -79.7461 42.0976 
Ar 4.41186 2.78018 1.73838 -318.472 55.353 -332.069 
Ar 7.90386 0.280692 2.52285 4.61455 104.818 -39.5956 
Ar 5.41903 10.2973 10.3534 59.0576 -89.4456 -67.0678 
Ar 6.77991 2.57539 5.13264 -414.832 -24.3619 -45.9466 
Ar 5.97991 1.96407 7.87864 266.721 -246.706 -6.54669 
Ar 8.91884 10.067 8.28617 380.63 -181.572 146.589 
Ar 5.75838 0.574784 5.37332 186.9 218.821 42.095 
Ar 8.04958 8.27109 0.412161 59.0866 140.597 153.102 
Ar 4.90061 8.02851 3.30433 -133.642 50.315 250.57 
Ar 7.84164 5.65301 2.71664 -18.2063 145.897 32.1815 
Ar 4.87029 5.56341 10.2592 -144.347 112.705 -105.267 
Ar 8.32567 7.8177 5.37073 160.659 -27.3421 41.2209 
Ar 5.71498 7.76436 7.97341 168.557 -47.4022 30.7068 
Ar 8.17356 5.10696 7.80149 104.068 -56.4821 -33.341 
Ar 5.20724 5.49015 5.69282 -20.1388 85.9231 160.562 
