32
comment
Ar 2.49954 2.52099 0.388866 -81.2181 -67.994 244.23 
Ar 0.124638 2.91006 2.57714 78.7946 175.158 -32.6792 
Ar 2.24537 0.243418 2.92351 -240.543 153.056 183.891 
Ar 0.169906 10.0668 10.143 106.222 -324.061 -269.582 
Ar 2.78529 2.31809 5.26894 96.9435 -195.181 5.31911 
Ar 0.0872386 2.56646 7.89109 54.9553 -39.7905 0.221715 
Ar 2.69875 0.0435292 8.38886 42.9825 27.6179 311.437 
Ar 0.0231519 0.472702 5.15282 15.1605 296.002 -67.1782 
Ar 2.3431 7.69173 0.323672 -179.336 -124.2 202.885 
Ar 0.144091 7.87388 3.01675 90.6342 -10.5653 241.899 
Ar 2.50897 5.18506 2.44706 -75.873 -46.9882 -114.063 
Ar 10.4694 5.17909 0.0363898 -36.4578 -50.5619 22.8979 
Ar 2.75413 7.46864 5.29031 77.7028 -264.202 18.8578 
Ar 0.180803 7.72681 8.17808 113.386 -101.956 180.133 
Ar 2.54028 5.43353 7.74297 -56.0107 108.748 -92.4866 
Ar 0.455789 5.11437 4.86382 285.658 -90.9871 -248.014 
Ar 7.75706 2.50247 0.0654425 -83.1637 -79.6521 41.3692 
Ar 4.75888 2.71902 2.10214 -313.843 55.6612 -329.989 
Ar 7.89855 0.165802 2.56641 5.04466 104.092 -39.6335 
Ar 5.35413 10.3955 10.427 58.9333 -89.1025 -66.6953 
Ar 7.23377 2.59879 5.18409 -411.148 -19.8101 -47.2775 
Ar 5.68657 2.23535 7.88447 266.614 -246.578 -4.29772 
Ar 8.49996 10.2666 8.12484 380.964 -181.257 146.722 
Ar 5.55462 0.338394 5.32706 184.355 212.686 41.9419 
Ar 7.98458 8.11618 0.24395 59.0996 141.051 152.739 
Ar 5.04728 7.97267 3.02917 -133.109 51.1686 249.801 
Ar 7.86156 5.49272 2.68129 -18.0014 145.569 32.1004 
Ar 5.02907 5.43963 10.3745 -144.342 112.384 -104.395 
Ar 8.14864 7.84752 5.32548 161.222 -26.8729 41.0506 
Ar 5.52956 7.81606 7.93956 168.549 -46.6334 30.8433 
Ar 8.05866 5.16921 7.83792 104.841 -56.6754 -32.8845 
Ar 5.22898 5.39607 5.51633 -19.5107 85.2374 160.326 
