32
comment
Ar -1.37126 -0.711819 11.8685 -81.6583 -68.2004 242.214 
Ar 3.78197 11.2038 0.996274 77.183 174.975 -33.3414 
Ar -9.14692 7.41881 11.6028 -240.345 151.404 183.117 
Ar 5.20115 -15.8511 -13.1846 106.146 -323.492 -269.073 
Ar 7.38766 -6.91782 5.54045 97.095 -194.854 5.7234 
Ar 2.65031 0.685232 7.94496 54.0879 -39.6891 1.12158 
Ar 4.73493 1.31193 23.1865 42.9577 26.7741 312.174 
Ar 0.682665 14.452 1.98188 13.9319 294.939 -66.9005 
Ar -6.15618 1.82942 9.8877 -179.31 -123.685 201.79 
Ar 4.38807 7.41581 14.4665 89.5525 -9.67731 241.561 
Ar -1.07232 2.96862 -2.98528 -75.5575 -46.7628 -114.597 
Ar -1.7513 2.78198 1.10612 -35.7408 -50.5719 22.5738 
Ar 6.42853 -4.98021 6.19093 77.521 -262.657 18.9987 
Ar 5.52055 2.89662 16.7156 112.664 -101.906 180.115 
Ar -0.122404 10.5678 3.41241 -56.1715 108.323 -91.3793 
Ar 13.9254 0.800166 -6.86419 284.192 -91.017 -247.432 
Ar 3.82209 -1.28082 1.98215 -83.0186 -79.8127 40.4521 
Ar -10.0738 5.35524 -13.5423 -312.934 55.6172 -330.047 
Ar 8.16656 5.05579 0.676803 5.64408 103.179 -39.8612 
Ar 8.13772 -4.34926 -3.24374 58.729 -88.7604 -66.1989 
Ar -12.171 1.67424 2.93561 -409.408 -19.5053 -47.4366 
Ar 18.3267 -9.46405 7.75094 266.667 -246.817 -2.83797 
Ar 26.5834 -8.85706 15.0844 381.498 -180.756 146.824 
Ar 14.2834 10.3239 7.31691 184.152 210.691 41.9777 
Ar 10.7878 14.832 7.45716 59.1381 141.672 152.187 
Ar -1.25044 10.4449 14.8433 -132.866 52.1416 249.251 
Ar 7.03243 12.3844 4.19941 -17.5013 145.397 32.0288 
Ar -1.81171 10.7579 -5.06315 -144.321 112.202 -103.33 
Ar 15.8319 6.60434 7.25958 162.08 -26.2379 40.8078 
Ar 13.5108 5.64325 9.41507 168.384 -45.852 31.1239 
Ar 13.0834 2.47752 6.31081 105.988 -56.7853 -32.2285 
Ar 4.31312 9.42282 13.1068 -19.3241 84.9556 160.139 
