32
comment
Ar 3.00357e+09 6.49028e+09 9.64658e+08 -3.00357e+13 -6.49028e+13 -9.64658e+12 
Ar 94.8164 0.217175 6.99512 137716 100359 48713.2 
Ar 6.43691 2.99704 7.69798 -6115.14 4250.22 4931.34 
Ar 3.4541e+10 7.46382e+10 1.10936e+10 1.50178e+13 3.24514e+13 4.82329e+12 
Ar 3.4635 0.853232 5.26834 87.6723 -198.567 -3.20219 
Ar 22417.7 18644.2 40402 7.83501e+06 6.53278e+06 1.4036e+07 
Ar 3.01679 0.255691 0.166853 181.319 140.458 388.82 
Ar 5.30797e+09 1.70352 4.63791 1.8957e+12 -1.86224e+12 -1.99234e+12 
Ar 383.665 1274.18 1386.5 -3.82213e+06 4.32901e+06 4.71319e+06 
Ar 542.73 231.134 239.64 1.91072e+06 -2.23655e+06 -2.35067e+06 
Ar 154437 119870 231994 6.18797e+07 4.80516e+07 9.29019e+07 
Ar 10.2406 3101.87 8.71167 -163366 1.65295e+06 -987030 
Ar 3.46463 5.49184 5.60746 168.857 -220.882 123.67 
Ar 1.08132e+10 7.53305e+11 9.95728e+10 2.7033e+12 1.88326e+14 2.48932e+13 
Ar 27861.2 3.19402e+06 88938.6 -2.78589e+08 9.1268e+08 -8.89312e+08 
Ar 3499.04 2741.44 5354.69 -3.49011e+07 -2.73545e+07 -5.34746e+07 
Ar 6.84357 2.06819 1.00317 -223.986 -27.0833 356.487 
Ar 194.045 78.7828 163.751 -1.87143e+06 -710767 141342 
Ar 7.91541 0.979187 2.23673 -16.3131 134.992 -73.8222 
Ar 5.79203 9.72775 9.9264 58.9434 -91.6245 -68.0305 
Ar 2304.36 8.27552 8965.03 604836 -7.64311e+06 2.05301e+06 
Ar 7.72567 0.409998 7.85903 309.777 -240.965 20.3723 
Ar 0.791383 8.88675 9.11824 378.65 -268.573 -91.4977 
Ar 4.42288 17113.6 5.20822 -302528 3.82522e+06 -1.02734e+06 
Ar 8.42072 9.14623 1.38456 58.4585 136.838 155.785 
Ar 4.04685 1.10901 0.722285 -248.199 8229.74 -10293.2 
Ar 7.73635 6.58451 2.93763 -14.7617 150.853 40.1855 
Ar 5.1906 6.90661 10.1586 600.25 499.092 242.627 
Ar 4.7947 9.83007 5.84279 13625.4 4596.26 -6162.94 
Ar 219.161 1.99122 4.91007 153638 5881.5 54281.5 
Ar 4.09381 1.7341e+12 3.91614 -4.6815e+14 4.33526e+15 -4.41611e+15 
Ar 1.69661e+06 582881 88425.5 5.65548e+09 1.94301e+09 -8.84184e+08 
