32
comment
Ar 30.3961 24.0238 5.91141 8.82899e-14 9.79242e-14 8.49071e-14 
Ar 31.7965 4.83973 9.96204 -1.33188e-13 -1.36243e-13 -1.98148e-13 
Ar 10.0759 32.3618 9.36261 6.49251e-13 6.30949e-14 4.52242e-13 
Ar 0.943573 3.90968 32.196 1.6498e-11 1.38819e-12 2.93674e-11 
Ar 23.9187 1.95209 27.7995 1.31144e-14 1.32289e-14 4.77854e-15 
Ar 2.91313 21.9261 18.6728 -8.47909e-15 5.68416e-15 6.83477e-15 
Ar 21.5329 2.47671 5.60698 -1.46335e-11 2.41093e-12 -4.64511e-12 
Ar 6.34549 6.10812 10.4402 4.5241e-13 1.78224e-12 3.39597e-13 
Ar 2.5758 11.6365 18.6999 -4.01434e-12 -1.85254e-12 8.58286e-13 
Ar 34.0006 1.52893 12.8175 -1.48845e-13 5.08685e-14 4.36067e-14 
Ar 31.4302 13.7404 14.479 -3.08286e-14 -1.11105e-14 -1.21014e-14 
Ar 0.729767 33.7293 2.47671 7.27342e-13 -3.58092e-13 6.56121e-13 
Ar 4.1826 3.64048 26.3968 -1.66045e-11 -2.14417e-12 2.85139e-11 
Ar 18.1873 18.5651 10.1466 -5.98097e-16 7.11256e-15 -1.13526e-15 
Ar 14.511 3.62646 7.77957 1.86091e-13 -9.92929e-15 -4.8382e-14 
Ar 8.49315 4.20335 14.429 1.26819e-15 -3.5824e-16 1.09807e-16 
Ar 3.5857 18.0542 34.4558 -8.20713e-14 -1.3248e-13 -2.813e-14 
Ar 9.03466 17.3377 4.4058 8.82115e-13 -2.08237e-13 9.34258e-13 
Ar 23.4819 0.380133 18.9754 5.53816e-13 -1.11348e-12 -3.33225e-12 
Ar 10.9328 25.4096 35.1257 -3.26816e-14 -3.96132e-14 -6.50792e-15 
Ar 23.3105 35.5274 9.50602 6.37293e-11 -1.02478e-10 1.37644e-10 
Ar 15.4376 8.68486 8.8293 3.58329e-14 5.45083e-15 -6.18982e-14 
Ar 17.8062 16.478 14.3942 -2.09334e-11 -1.16243e-10 -2.42261e-10 
Ar 7.46301 9.7434 30.7152 2.22892e-17 1.88355e-16 1.34756e-16 
Ar 6.41474 12.5592 1.6454 -2.629e-11 -4.56501e-11 2.8559e-11 
Ar 9.9979 8.17258 27.0334 -9.07654e-14 8.88125e-14 -4.34279e-14 
Ar 34.6489 14.6196 24.0539 -4.03391e-14 2.42338e-13 1.81909e-13 
Ar 24.4553 13.1934 10.022 -8.29837e-17 1.67005e-16 -3.77114e-17 
Ar 32.537 20.6229 35.1346 1.3193e-15 -2.33592e-16 5.20915e-16 
Ar 5.16119 10.4265 3.3346 3.75209e-14 2.25109e-14 -5.72509e-15 
Ar 24.264 5.21922 18.5467 6.81564e-15 -8.15352e-16 5.66749e-16 
Ar 10.4896 15.3491 20.4054 -3.52081e-14 -2.29728e-18 -7.22571e-15 
