32
comment
Ar 2.46714 2.49382 0.486748 -80.6825 -67.8189 245.251 
Ar 0.156276 2.98015 2.56411 79.4187 175.286 -32.4595 
Ar 2.14912 0.304762 2.99714 -240.702 153.681 184.246 
Ar 0.212398 9.9371 10.0351 106.242 -324.456 -269.904 
Ar 2.82405 2.23997 5.27102 96.8131 -195.415 5.06386 
Ar 0.109263 2.55053 7.89113 55.1639 -39.8577 -0.022711 
Ar 2.71595 0.0546142 8.5134 42.9869 27.8049 311.283 
Ar 0.0293143 0.591166 5.12591 15.6726 296.319 -67.3767 
Ar 2.27136 7.64201 0.404898 -179.36 -124.407 203.253 
Ar 0.180413 7.86959 3.11353 90.9773 -10.8919 241.986 
Ar 2.47857 5.16624 2.40147 -76.1244 -47.146 -113.896 
Ar 10.4548 5.15887 0.0455646 -36.6318 -50.5554 22.976 
Ar 2.78524 7.36285 5.29784 77.8216 -264.767 18.8147 
Ar 0.226203 7.68606 8.25017 113.619 -101.754 180.337 
Ar 2.51788 5.47708 7.7059 -55.9918 109.025 -92.8739 
Ar 0.570148 5.07799 4.76454 286.151 -90.9537 -248.426 
Ar 7.72378 2.47061 0.08204 -83.2084 -79.6641 41.6206 
Ar 4.63319 2.74129 1.97009 -314.685 55.6538 -330.329 
Ar 7.90053 0.207489 2.55057 4.89196 104.343 -39.6012 
Ar 5.37771 10.3598 10.4002 58.9806 -89.2188 -66.8296 
Ar 7.06915 2.59075 5.16523 -412.004 -20.4873 -46.9967 
Ar 5.79322 2.13672 7.88262 266.659 -246.599 -4.95142 
Ar 8.65232 10.194 8.18352 380.838 -181.377 146.68 
Ar 5.62844 0.423685 5.34385 184.789 213.874 42.0253 
Ar 8.00822 8.17257 0.305071 59.0954 140.889 152.871 
Ar 4.99401 7.99308 3.12913 -133.258 50.8867 250.034 
Ar 7.85434 5.55097 2.69414 -18.0883 145.671 32.1273 
Ar 4.97133 5.4846 10.3327 -144.347 112.482 -104.699 
Ar 8.21308 7.83673 5.34191 161.015 -27.0398 41.1141 
Ar 5.59698 7.79735 7.95188 168.568 -46.8882 30.7902 
Ar 8.10054 5.14655 7.82473 104.557 -56.6176 -33.053 
Ar 5.22115 5.4302 5.58048 -19.6592 85.4261 160.409 
