32
comment
Ar 11.0993 28.9228 15.1557 8.71113e-14 2.81605e-14 -6.19519e-13 
Ar 5.51268 15.2092 11.7434 2.52284e-14 2.57765e-14 3.75016e-14 
Ar 2.14874 24.8728 2.65773 2.95985e-13 -1.26743e-12 4.59633e-13 
Ar 13.4559 24.908 0.397968 -8.229e-13 6.44569e-14 1.65345e-13 
Ar 1.28503 25.4399 3.85347 -1.17205e-13 1.28031e-12 -2.6272e-13 
Ar 22.2528 0.424465 7.40586 1.89371e-13 9.48565e-14 7.31867e-14 
Ar 25.9437 12.0295 30.8378 -2.86094e-14 2.0418e-14 -4.44773e-14 
Ar 27.2957 13.9462 20.4543 -6.42819e-06 1.59822e-05 -7.70292e-06 
Ar 1.74265 17.7883 12.5371 5.42584e-12 9.32345e-12 -2.18258e-11 
Ar 28.9945 34.2567 15.1828 -4.66628e-11 -3.28373e-10 1.59791e-10 
Ar 24.6329 6.41503 2.17639 -2.23302e-12 -3.86063e-13 1.00306e-13 
Ar 14.1334 17.4912 12.0295 -6.57641e-16 1.45257e-15 1.84667e-15 
Ar 2.26419 3.09939 32.2538 9.06103e-16 -2.91839e-15 -1.92554e-15 
Ar 9.37662 15.4205 22.8654 -1.16143e-13 2.13297e-13 -1.43389e-12 
Ar 24.9356 9.48129 26.9362 1.26657e-12 4.42848e-12 4.19129e-12 
Ar 25.5559 34.1042 26.5396 2.24891e-14 1.28956e-14 9.96394e-14 
Ar 16.9217 18.4698 31.8964 2.33918e-13 -1.67981e-13 -1.58581e-13 
Ar 0.00794063 28.072 3.6122 -2.82559e-14 -3.38499e-14 4.03518e-15 
Ar 26.6607 15.5248 21.2152 6.42819e-06 -1.59822e-05 -7.70292e-06 
Ar 24.647 12.9662 5.65402 -5.19289e-13 -1.41797e-11 -7.0558e-12 
Ar 20.6054 29.0856 5.47958 4.27802e-14 1.1606e-13 -4.54235e-14 
Ar 10.4536 6.35904 11.3068 7.54875e-15 2.41881e-14 3.44896e-14 
Ar 13.4016 32.4827 25.3794 2.74723e-13 5.8673e-13 -1.17638e-12 
Ar 2.57741 4.01181 8.31184 1.69136e-13 7.17492e-13 1.49174e-13 
Ar 0.223357 15.1303 6.26671 -1.62846e-11 1.11481e-11 -3.09962e-11 
Ar 26.2132 11.9453 2.30244 1.06172e-15 6.18063e-16 4.04494e-16 
Ar 15.6297 6.28822 0.826047 -5.10694e-12 -8.66255e-13 -2.8571e-12 
Ar 16.4121 35.6673 7.47112 8.6764e-14 5.30925e-14 1.1483e-13 
Ar 28.4427 2.31827 17.0734 1.4724e-13 1.0407e-13 3.0647e-13 
Ar 0.591331 1.69855 17.6502 6.796e-14 -9.95814e-14 -3.42088e-13 
Ar 33.7905 5.85935 5.92282 2.09744e-13 2.67592e-13 -2.78816e-13 
Ar 21.2537 20.839 8.3378 -1.97697e-15 1.84615e-14 -1.68953e-15 
