32
comment
Ar 29.4262 2.65686 0.041327 7.13356e-16 -1.28728e-15 8.77161e-16 
Ar 0.00966789 32.2039 31.9963 4.91713e-16 3.15487e-15 2.36433e-15 
Ar 6.33564 30.2574 22.2707 -3.67072e-11 -6.25767e-11 2.41166e-11 
Ar 28.4013 26.5896 11.0068 7.07272e-14 -7.89172e-17 -7.31353e-14 
Ar 6.66887 6.32974 13.4397 -1.00508e-15 -1.13951e-14 -3.30493e-15 
Ar 0.00259847 33.8551 1.74414 4.1822e-16 1.68145e-14 -1.23979e-14 
Ar 17.0014 0.00340968 4.14581 -9.63662e-11 8.00397e-11 -6.6229e-11 
Ar 3.06425 26.5132 18.7018 -1.80141e-09 7.79006e-09 -3.16487e-09 
Ar 31.2486 4.07629 0.0247191 6.92778e-13 -1.33137e-12 -7.41731e-16 
Ar 7.6526 22.41 26.3887 -6.09927e-09 1.07512e-12 -6.10841e-09 
Ar 14.3071 5.22051 14.28 2.23978e-12 -7.82024e-12 -8.27345e-12 
Ar 0.0581131 13.4313 0.00340968 8.10815e-15 7.34754e-15 8.53375e-15 
Ar 3.23338 1.71292 13.4363 -5.61837e-13 -9.35466e-14 1.80109e-15 
Ar 33.5988 33.1082 28.7488 -1.80797e-10 -7.33833e-11 -2.60839e-10 
Ar 31.506 12.2404 32.6163 -0.0114559 0.0116933 -1.87993e-05 
Ar 0.0291705 13.3868 13.3699 -1.80112e-09 7.7908e-09 3.16457e-09 
Ar 4.08866 31.2695 21.0564 -6.49465e-15 1.17651e-14 3.76177e-14 
Ar 13.2691 6.29771 5.9764 -8.7175e-12 -9.82459e-12 -7.62705e-12 
Ar 4.11884 0.0116117 16.9958 2.22687e-09 -1.25639e-10 2.70649e-09 
Ar 13.4551 4.53178 14.1582 -3.59899e-13 -4.13827e-13 1.73742e-12 
Ar 4.02567 0.938614 13.4247 -2.67864e-12 -6.02264e-13 -1.0761e-14 
Ar 13.3648 3.05211 1.6928 4.02154e-09 -4.10521e-09 6.24548e-12 
Ar 4.17143 23.1976 1.78945 -8.8839e-15 -1.22096e-14 -1.11514e-14 
Ar 13.4149 0.0222067 13.3998 3.7927e-14 1.61782e-15 3.72369e-14 
Ar 35.6561 6.81255 0.0107443 -3.73204e-13 -2.04558e-13 1.50044e-13 
Ar 13.349 4.11824 1.05201 1.64103e-16 8.3341e-14 -4.94327e-14 
Ar 4.03565 13.3488 0.927414 -5.91247e-16 2.81033e-16 1.77133e-15 
Ar 13.4135 16.8641 26.0776 -1.14855e-15 5.39737e-15 -2.78008e-14 
Ar 4.12398 4.10383 13.4409 -1.13492e-15 -1.13593e-15 4.499e-15 
Ar 13.3914 4.10262 4.04946 -2.15114e-14 -2.35443e-12 -7.04502e-13 
Ar 4.05647 13.3025 4.04204 -2.45574e-12 2.76961e-14 -7.37752e-13 
Ar 13.3009 13.4067 1.26483 2.94322e-13 1.12379e-11 2.59246e-10 
