32
comment
Ar 2.43507 2.46675 0.585127 -79.5094 -67.4872 246.758 
Ar 0.188192 3.0503 2.55118 80.1908 175.482 -32.1999 
Ar 2.0528 0.366378 3.07093 -240.93 154.427 184.739 
Ar 0.254899 9.8072 9.92706 106.265 -325.109 -270.404 
Ar 2.86274 2.16175 5.27298 96.6261 -195.722 4.71878 
Ar 0.131369 2.53457 7.89107 55.3668 -39.9382 -0.279424 
Ar 2.73314 0.0657715 8.63788 42.9885 27.9789 311.138 
Ar 0.0357098 0.709757 5.0989 16.3341 296.639 -67.6754 
Ar 2.19961 7.5922 0.486281 -179.386 -124.669 203.674 
Ar 0.216878 7.86516 3.21034 91.3525 -11.2673 242.063 
Ar 2.44805 5.14734 2.35595 -76.4937 -47.371 -113.676 
Ar 10.4401 5.13864 0.0547706 -36.7985 -50.5479 23.0541 
Ar 2.8164 7.25681 5.30537 77.9937 -265.437 18.7998 
Ar 0.271703 7.64544 8.32238 113.883 -101.307 180.719 
Ar 2.49548 5.52076 7.66866 -55.9722 109.4 -93.3413 
Ar 0.684718 5.04161 4.66505 286.714 -90.9215 -249.02 
Ar 7.69049 2.43874 0.0987407 -83.2532 -79.7007 41.8863 
Ar 4.50704 2.76354 1.83783 -316.275 55.5689 -331.057 
Ar 7.90246 0.249279 2.53473 4.73526 104.608 -39.5885 
Ar 5.40131 10.3241 10.3735 59.0255 -89.3447 -66.9649 
Ar 6.90411 2.5823 5.14651 -413.307 -22.01 -46.522 
Ar 5.89989 2.03807 7.88048 266.704 -246.649 -5.78584 
Ar 8.80463 10.1215 8.24219 380.717 -181.491 146.63 
Ar 5.70251 0.509609 5.36068 185.672 215.969 42.1105 
Ar 8.03185 8.22889 0.366246 59.0907 140.724 153.002 
Ar 4.94067 8.01337 3.2292 -133.456 50.575 250.318 
Ar 7.84709 5.60926 2.70699 -18.1611 145.793 32.1572 
Ar 4.9136 5.52961 10.2908 -144.349 112.602 -105.017 
Ar 8.27745 7.82588 5.35837 160.811 -27.2109 41.1761 
Ar 5.66441 7.77854 7.96419 168.57 -47.1709 30.7416 
Ar 8.14231 5.12392 7.81148 104.276 -56.5456 -33.219 
Ar 5.21325 5.46441 5.64466 -19.8911 85.6803 160.498 
