32
comment
Ar 4.63263 31.7824 3.712 1.49667e-11 -1.36091e-10 6.14672e-11 
Ar 10.8282 34.1458 13.4248 -3.43776e-13 -1.47373e-13 -5.40264e-13 
Ar 19.189 33.9348 15.7407 5.19811e-12 -1.28081e-13 -1.44672e-12 
Ar 35.0378 13.8765 4.76465 -1.27071e-14 5.42425e-14 3.75229e-14 
Ar 23.5225 7.23852 28.7262 -1.70259e-13 -4.41527e-14 -3.83413e-13 
Ar 1.33063 13.7399 8.37287 6.41748e-14 -6.15077e-14 -9.76638e-15 
Ar 9.72163 27.8195 6.23411 1.11686e-14 -2.64265e-14 7.10257e-15 
Ar 17.8142 4.22583 1.01569 -5.56273e-12 4.53047e-11 -2.97885e-11 
Ar 22.8947 24.0574 32.9449 -6.70009e-16 2.96428e-15 -6.19777e-15 
Ar 7.91733 7.19115 32.3731 1.05424e-14 2.16115e-14 2.53824e-14 
Ar 23.8895 18.3307 8.17584 -2.26561e-13 -5.77645e-16 -2.56777e-13 
Ar 33.7896 0.320399 29.6808 -7.40976e-16 6.5907e-15 3.33158e-14 
Ar 13.9121 29.4021 12.3326 -6.67311e-13 -2.50845e-13 -1.5184e-12 
Ar 2.39832 2.83298 7.64895 -1.25087e-11 8.72e-11 2.20445e-10 
Ar 30.8719 16.8784 13.2065 3.10462e-12 -2.02736e-13 -4.74588e-12 
Ar 10.2936 0.00316877 15.6513 1.54798e-16 1.49374e-17 3.87271e-17 
Ar 5.17209 0.758915 5.85839 1.17062e-10 8.84831e-11 7.68297e-11 
Ar 28.8445 31.7262 27.2235 -3.93948e-14 6.61489e-13 3.9202e-13 
Ar 13.5482 1.86912 15.1947 2.12242e-12 5.92877e-12 4.64254e-12 
Ar 16.1043 2.56807 11.9738 -2.42849e-10 -6.84099e-11 -2.95971e-10 
Ar 35.2044 2.84206 11.7977 -1.10004e-10 -7.61967e-13 1.48737e-10 
Ar 16.6454 8.33421 7.11527 5.09498e-15 -5.67627e-15 2.30539e-15 
Ar 6.17114 15.6174 6.09897 -8.23776e-11 -3.26917e-11 3.89107e-11 
Ar 9.64368 32.9943 9.50976 2.34859e-14 -4.91806e-15 1.99934e-14 
Ar 15.7253 29.1093 21.5 9.77857e-15 -1.95544e-15 2.75986e-14 
Ar 30.3504 7.30025 21.6324 -1.42745e-14 -2.78572e-15 1.09303e-14 
Ar 16.0863 22.2416 23.7991 9.45935e-16 9.14591e-15 -1.04887e-15 
Ar 29.7544 24.958 0.956701 -8.97393e-12 8.14441e-13 5.54812e-12 
Ar 18.4465 9.37169 4.39851 4.509e-17 2.86798e-16 7.34978e-17 
Ar 7.33554 15.9813 20.2721 -9.24162e-13 -3.01631e-13 -2.88643e-13 
Ar 9.83197 27.8679 3.04688 -5.49883e-17 -5.23144e-17 3.17071e-16 
Ar 11.3113 8.09581 20.0797 -1.58766e-15 1.06782e-14 1.02493e-15 
