32
comment
Ar 8.1699 4.72482 12.4628 6.36563e-14 7.38131e-14 -1.90625e-14 
Ar 4.44034 24.5004 4.66052 -8.10021e-15 -4.32875e-15 -4.28119e-14 
Ar 2.4554 4.55066 25.3324 7.26794e-14 2.16781e-14 1.68031e-13 
Ar 29.1127 11.7423 4.1971 1.315e-14 5.5063e-15 2.98733e-14 
Ar 23.5043 13.6108 27.182 -8.17387e-13 2.45769e-11 1.72175e-11 
Ar 11.797 8.88565 27.0661 1.33767e-12 4.51331e-13 -4.40672e-13 
Ar 15.6406 9.88153 0.0495662 -6.76545e-14 -6.26404e-14 -1.19273e-13 
Ar 28.8201 26.4172 26.4752 -1.06578e-11 -3.56834e-12 3.42209e-12 
Ar 14.402 1.94642 11.1892 -2.18143e-13 3.1759e-13 2.96409e-13 
Ar 9.60299 13.5096 6.63336 -4.32985e-16 -2.02451e-15 2.27778e-15 
Ar 27.2623 27.8299 3.83432 -1.7794e-13 -1.13226e-13 -6.5003e-13 
Ar 21.6517 22.7684 9.88153 1.93647e-14 1.81829e-13 7.84262e-15 
Ar 25.5726 7.98953 1.19078 2.75686e-15 -1.34404e-15 -1.43228e-16 
Ar 17.6964 16.757 14.9465 1.52996e-14 -1.69294e-15 3.49131e-14 
Ar 29.8886 19.0492 31.2144 -3.72357e-12 2.30383e-13 -8.209e-12 
Ar 8.97564 32.2981 21.6605 -2.31501e-13 4.47838e-13 3.16536e-13 
Ar 6.51688 31.1657 13.1793 5.65034e-14 -1.93532e-14 -2.55839e-15 
Ar 19.2092 33.8089 17.5014 7.39018e-14 7.69995e-14 -4.69259e-14 
Ar 5.34237 24.3093 11.8855 6.75817e-15 -7.09636e-16 -3.57985e-15 
Ar 28.7447 23.8244 23.4332 5.40225e-12 -1.86679e-10 2.24568e-10 
Ar 15.7287 24.8419 21.6803 -7.16934e-14 -5.48511e-14 -1.83735e-13 
Ar 7.19766 17.1967 24.8707 1.40332e-14 3.3372e-14 -7.33162e-15 
Ar 0.0344095 24.0621 24.2171 2.13067e-12 -1.15741e-12 3.55198e-13 
Ar 22.4534 25.2687 33.6839 -8.40208e-12 1.3049e-12 -1.02858e-11 
Ar 6.89573 4.29446 5.51658 -4.52532e-15 3.12256e-15 -6.69681e-15 
Ar 20.5306 5.06607 30.0828 -8.87179e-16 -1.46306e-15 -1.26485e-16 
Ar 26.5455 11.4071 18.2562 1.06277e-11 -1.41752e-11 2.10809e-11 
Ar 34.5326 31.56 23.3531 4.37352e-15 -1.42655e-15 1.26543e-15 
Ar 18.0734 21.2098 29.1024 -2.91602e-14 -4.6203e-15 -3.97335e-14 
Ar 11.6972 25.7331 9.95104 -3.35643e-11 -2.85424e-12 1.02048e-11 
Ar 23.9019 7.88059 23.5008 -3.94144e-12 -3.52202e-11 2.14691e-12 
Ar 5.52225 27.3302 13.9351 -2.78972e-17 4.98503e-16 3.98971e-16 
