32
comment
Ar -3.41271 -2.41683 17.9238 -81.6583 -68.2004 242.214 
Ar 5.71155 15.5781 0.16274 77.183 174.975 -33.3414 
Ar -15.1555 11.2039 16.1807 -240.345 151.404 183.117 
Ar 7.8548 -23.9384 -19.9114 106.146 -323.492 -269.073 
Ar 9.81503 -11.7892 5.68353 97.095 -194.854 5.7234 
Ar 4.0025 -0.306997 7.973 54.0879 -39.6891 1.12158 
Ar 5.80887 1.98129 30.9908 42.9577 26.7741 312.174 
Ar 1.03096 21.8255 0.309366 13.9319 294.939 -66.9005 
Ar -10.6389 -1.26272 14.9325 -179.31 -123.685 201.79 
Ar 6.62689 7.17388 20.5055 89.5525 -9.67731 241.561 
Ar -2.96125 1.79955 -5.85021 -75.5575 -46.7628 -114.597 
Ar -2.64482 1.51768 1.67046 -35.7408 -50.5719 22.5738 
Ar 8.36655 -11.5466 6.6659 77.521 -262.657 18.9987 
Ar 8.33716 0.348973 21.2185 112.664 -101.906 180.115 
Ar -1.52669 13.2759 1.12793 -56.1715 108.323 -91.3793 
Ar 21.0302 -1.47526 -13.05 284.192 -91.017 -247.432 
Ar 1.74662 -3.27614 2.99346 -83.0186 -79.8127 40.4521 
Ar -17.8971 6.74568 -21.7935 -312.934 55.6172 -330.047 
Ar 8.30766 7.63528 -0.319726 5.64408 103.179 -39.8612 
Ar 9.60595 -6.56827 -4.89872 58.729 -88.7604 -66.1989 
Ar -22.4062 1.18661 1.74969 -409.408 -19.5053 -47.4366 
Ar 24.9934 -15.6345 7.67999 266.667 -246.817 -2.83797 
Ar 36.1208 -13.376 18.755 381.498 -180.756 146.824 
Ar 18.8872 15.5911 8.36635 184.152 210.691 41.9777 
Ar 12.2662 18.3738 11.2618 59.1381 141.672 152.187 
Ar -4.5721 11.7485 21.0746 -132.866 52.1416 249.251 
Ar 6.5949 16.0194 5.00013 -17.5013 145.397 32.0288 
Ar -5.41972 13.563 -7.64639 -144.321 112.202 -103.33 
Ar 19.8839 5.94839 8.27978 162.08 -26.2379 40.8078 
Ar 17.7204 4.49695 10.1932 168.384 -45.852 31.1239 
Ar 15.7331 1.05789 5.50509 105.988 -56.7853 -32.2285 
Ar 3.83002 11.5467 17.1103 -19.3241 84.9556 160.139 
