32
comment
Ar 2.35464 2.3943 0.861379 -57.8752 -61.9581 258.704 
Ar 0.278047 3.24386 2.5163 83.5778 176.66 -31.0726 
Ar 1.78718 0.537729 3.2754 -242.267 157.399 187.504 
Ar 0.371847 9.44715 9.62798 106.398 -331.461 -274.465 
Ar 2.96858 1.94583 5.27741 95.7041 -196.924 3.15997 
Ar 0.192564 2.49049 7.89034 55.8856 -40.207 -1.06541 
Ar 2.78042 0.0967828 8.97993 42.9748 28.3879 310.778 
Ar 0.0551958 1.03647 5.02361 19.5488 297.264 -69.6159 
Ar 2.00226 7.45449 0.711102 -179.424 -125.84 205.193 
Ar 0.318002 7.8521 3.47669 92.5476 -12.5329 242.164 
Ar 2.36295 5.09469 2.23151 -78.5991 -48.505 -112.28 
Ar 10.3994 5.08305 0.0802472 -37.2202 -50.5241 23.2658 
Ar 2.90262 6.96352 5.3262 78.8942 -268.034 19.2651 
Ar 0.397447 7.53619 8.52268 114.778 -95.3105 184.573 
Ar 2.43398 5.64194 7.56501 -55.8144 111.128 -95.3582 
Ar 1.00115 4.94158 4.38959 288.767 -91.0436 -252.422 
Ar 7.59885 2.35095 0.145261 -83.3471 -79.9553 42.7313 
Ar 4.15114 2.82348 1.47032 -339.91 51.3177 -340.092 
Ar 7.90742 0.364787 2.49114 4.27559 105.436 -39.709 
Ar 5.4663 10.2256 10.2996 59.1382 -89.7443 -67.3507 
Ar 6.44476 2.54862 5.09731 -425.67 -52.021 -40.6819 
Ar 6.19326 1.76661 7.8724 266.605 -246.95 -9.21218 
Ar 9.22325 9.92166 8.40339 380.41 -181.77 146.469 
Ar 5.91094 0.757989 5.40631 197.164 248.941 38.8157 
Ar 8.09684 8.38343 0.53475 59.0707 140.244 153.373 
Ar 4.79344 8.06844 3.50511 -134.317 49.4623 251.425 
Ar 7.82703 5.76985 2.74242 -18.2868 146.225 32.2547 
Ar 4.75482 5.6537 10.1747 -144.324 113.037 -105.987 
Ar 8.45404 7.79568 5.40375 160.261 -27.7044 41.3287 
Ar 5.84979 7.72616 7.99794 168.447 -48.104 30.6097 
Ar 8.2566 5.06186 7.77469 103.53 -56.2732 -33.6524 
Ar 5.19074 5.55923 5.82132 -21.258 86.8582 160.686 
