32
comment
Ar 2.41926 2.45328 0.634577 -78.4445 -67.2076 247.804 
Ar 0.204275 3.08541 2.54475 80.6476 175.613 -32.0493 
Ar 2.0046 0.397305 3.1079 -241.078 154.855 185.058 
Ar 0.276154 9.74213 9.87295 106.279 -325.597 -270.76 
Ar 2.88205 2.12258 5.2739 96.507 -195.904 4.50686 
Ar 0.142452 2.52658 7.891 55.4656 -39.9826 -0.413085 
Ar 2.74174 0.0713756 8.7001 42.9881 28.0608 311.069 
Ar 0.0390162 0.769101 5.08535 16.7383 296.793 -67.8781 
Ar 2.16373 7.56725 0.527039 -179.399 -124.827 203.908 
Ar 0.235168 7.86289 3.25876 91.5523 -11.4732 242.095 
Ar 2.43273 5.13785 2.33323 -76.7365 -47.5141 -113.533 
Ar 10.4327 5.12854 0.0593853 -36.8791 -50.5439 23.093 
Ar 2.83201 7.20369 5.30913 78.1051 -265.819 18.8129 
Ar 0.294493 7.62521 8.35855 114.028 -100.925 181.017 
Ar 2.48429 5.54267 7.64997 -55.9594 109.63 -93.6144 
Ar 0.742092 5.02343 4.61521 287.026 -90.9115 -249.409 
Ar 7.67384 2.42279 0.107132 -83.2745 -79.7292 42.0259 
Ar 4.44366 2.77464 1.77156 -317.598 55.4494 -331.67 
Ar 7.9034 0.270214 2.52681 4.65512 104.747 -39.5915 
Ar 5.41312 10.3063 10.3601 59.047 -89.4113 -67.0334 
Ar 6.82136 2.57777 5.13724 -414.25 -23.4019 -46.1683 
Ar 5.95324 1.98874 7.87928 266.718 -246.685 -6.27951 
Ar 8.88077 10.0852 8.27151 380.658 -181.545 146.603 
Ar 5.73971 0.552962 5.36911 186.414 217.684 42.1165 
Ar 8.04367 8.25703 0.396853 59.088 140.639 153.068 
Ar 4.91397 8.02347 3.27928 -133.576 50.4046 250.482 
Ar 7.84346 5.63842 2.71343 -18.1921 145.861 32.1732 
Ar 4.88473 5.55214 10.2698 -144.348 112.67 -105.182 
Ar 8.3096 7.82043 5.36661 160.71 -27.2981 41.2062 
Ar 5.69812 7.76909 7.97034 168.563 -47.3232 30.7183 
Ar 8.16315 5.11261 7.80482 104.137 -56.5042 -33.3006 
Ar 5.20925 5.48157 5.67676 -20.048 85.8366 160.541 
