32
comment
Ar 18.2483 8.46884 12.6802 8.80725e-15 4.01918e-15 4.85651e-16 
Ar 4.76672 4.15059 3.23932 6.76188e-12 3.18924e-12 1.12823e-13 
Ar 10.7652 18.7618 13.1831 2.03074e-13 -3.54032e-13 7.35417e-14 
Ar 1.07049 11.4435 11.2334 1.66619e-14 7.86557e-15 8.1227e-15 
Ar 6.20657 25.2933 30.0939 1.8598e-14 -5.68981e-14 2.44758e-14 
Ar 17.1684 5.61662 19.8363 5.38299e-13 -1.3531e-13 -6.00374e-13 
Ar 17.8748 28.5912 0.10242 -1.3787e-13 8.0536e-14 -6.42414e-14 
Ar 4.82947 6.88968 13.5938 7.20548e-11 -9.96868e-11 1.82281e-11 
Ar 2.07681 35.718 12.8557 -1.81835e-12 -1.3428e-11 8.6016e-12 
Ar 22.1513 7.2256 34.8419 4.0522e-14 -1.84812e-15 1.40433e-14 
Ar 29.6563 19.3857 9.3 -3.83658e-13 -2.10371e-13 1.45714e-13 
Ar 4.58898 18.365 28.5916 1.83839e-13 -5.48628e-13 1.04416e-13 
Ar 0.0553403 1.67134 0.790318 6.29423e-11 3.32652e-11 -3.2936e-11 
Ar 9.54915 29.7766 28.3602 1.51699e-11 1.40901e-10 -1.68517e-10 
Ar 5.0411 19.6977 10.2016 -7.66761e-13 -6.58018e-15 6.2219e-13 
Ar 7.95411 7.26602 3.78876 2.42686e-10 2.3499e-10 -3.91333e-11 
Ar 8.65879 9.95835 27.1652 -8.67052e-13 2.53771e-12 1.11164e-13 
Ar 1.232 6.09762 8.88346 1.25675e-13 -1.30998e-14 -1.57462e-14 
Ar 21.7523 18.0434 9.27159 7.94997e-12 -5.40707e-13 5.9102e-13 
Ar 26.5815 31.7953 11.6389 -1.1561e-13 3.23915e-14 -1.79536e-13 
Ar 13.9057 26.2573 13.3983 1.07948e-11 -7.41431e-12 -7.71502e-11 
Ar 26.7928 20.7112 6.38025 1.49387e-15 -1.51804e-16 -2.5451e-15 
Ar 10.2555 5.54145 9.37112 -1.03289e-12 8.91759e-13 -4.80143e-13 
Ar 16.0738 20.9506 16.0023 1.89911e-11 -3.10421e-11 2.02908e-11 
Ar 20.5729 30.2822 3.98483 9.45376e-16 4.9666e-17 7.78991e-16 
Ar 18.6991 5.95752 20.9094 1.95083e-14 -4.53789e-14 -4.423e-15 
Ar 0.880732 28.0363 2.39814 3.3102e-14 -6.69897e-15 1.25213e-14 
Ar 12.2554 7.67689 3.36973 1.64193e-16 9.68677e-16 -4.81462e-16 
Ar 13.0966 25.6932 19.1719 -2.88548e-11 -2.555e-11 -9.88806e-11 
Ar 4.88277 8.18314 15.6859 8.1894e-14 -1.32176e-13 2.63202e-15 
Ar 13.5631 19.716 17.2989 -5.86521e-16 4.15895e-15 -1.23451e-15 
Ar 9.89558 32.9284 24.5793 5.57042e-08 5.068e-07 -6.07954e-07 
