32
comment
Ar 0.0169346 0.447588 7.75085 -81.6583 -68.2004 242.214 
Ar 2.46986 8.22919 1.56308 77.183 174.975 -33.3414 
Ar -5.06105 4.84494 8.48976 -240.345 151.404 183.117 
Ar 3.39667 -10.3517 -8.61033 106.146 -323.492 -269.073 
Ar 5.73704 -3.60531 5.44315 97.095 -194.854 5.7234 
Ar 1.73081 1.35995 7.92589 54.0879 -39.6891 1.12158 
Ar 4.00465 0.856773 17.8796 42.9577 26.7741 312.174 
Ar 0.445822 9.43806 3.11919 13.9319 294.939 -66.9005 
Ar -3.10791 3.93207 6.45728 -179.31 -123.685 201.79 
Ar 2.86568 7.58033 10.36 89.5525 -9.67731 241.561 
Ar 0.212161 3.76359 -1.03712 -75.5575 -46.7628 -114.597 
Ar -1.14371 3.6417 0.722363 -35.7408 -50.5719 22.5738 
Ar 5.11067 -0.515037 5.86796 77.521 -262.657 18.9987 
Ar 3.60526 4.62902 13.6537 112.664 -101.906 180.115 
Ar 0.832512 8.72634 4.96586 -56.1715 108.323 -91.3793 
Ar 9.09414 2.34746 -2.65784 284.192 -91.017 -247.432 
Ar 5.2334 0.0759936 1.29447 -83.0186 -79.8127 40.4521 
Ar -4.7539 4.40975 -7.93152 -312.934 55.6172 -330.047 
Ar 8.07061 3.30174 1.35444 5.64408 103.179 -39.8612 
Ar 7.13933 -2.84033 -2.11836 58.729 -88.7604 -66.1989 
Ar -5.21107 2.00583 3.74203 -409.408 -19.5053 -47.4366 
Ar 13.7933 -5.26815 7.79918 266.667 -246.817 -2.83797 
Ar 20.0979 -5.7842 12.5884 381.498 -180.756 146.824 
Ar 11.1529 6.74211 6.60329 184.152 210.691 41.9777 
Ar 9.78242 12.4235 4.86998 59.1381 141.672 152.187 
Ar 1.00828 9.55853 10.606 -132.866 52.1416 249.251 
Ar 7.32996 9.9127 3.65492 -17.5013 145.397 32.0288 
Ar 0.641743 8.85048 -3.30655 -144.321 112.202 -103.33 
Ar 13.0766 7.05039 6.56585 162.08 -26.2379 40.8078 
Ar 10.6483 6.42274 8.88596 168.384 -45.852 31.1239 
Ar 11.2816 3.44287 6.85869 105.988 -56.7853 -32.2285 
Ar 4.64163 7.97858 10.3845 -19.3241 84.9556 160.139 
