32
comment
Ar 6.23575 35.4036 14.2274 4.15693e-10 -1.34065e-09 2.59557e-10 
Ar 10.1372 21.4151 6.66654 2.2266e-10 8.15406e-12 2.01329e-11 
Ar 9.07819 28.2674 5.85582 4.54632e-15 5.60107e-14 1.32244e-14 
Ar 28.7338 33.0005 17.6748 2.90475e-13 5.08941e-14 5.47023e-14 
Ar 14.9461 18.3443 31.0422 -1.51688e-13 -1.82276e-14 1.01955e-13 
Ar 5.23545 21.2366 7.10639 -2.27283e-10 -1.50648e-11 2.18177e-11 
Ar 14.4284 9.30255 35.2937 2.42836e-15 8.1154e-15 2.47646e-15 
Ar 10.2875 9.43461 17.8299 7.88985e-12 -8.10712e-11 2.93549e-11 
Ar 4.81813 24.4416 27.1972 -2.67548e-14 5.99468e-17 -4.49366e-14 
Ar 9.21539 11.0935 17.8661 7.38778e-14 -3.7741e-14 3.05583e-14 
Ar 31.8331 31.7079 12.7946 3.85381e-11 1.53225e-11 -6.01893e-11 
Ar 34.5919 34.8271 9.30255 -2.54997e-10 -2.40198e-11 1.65249e-10 
Ar 24.5968 1.31959 21.6148 1.71647e-13 6.47156e-14 6.06084e-13 
Ar 14.5039 13.9957 1.43123 2.01651e-14 4.66918e-15 1.33893e-14 
Ar 0.890545 28.5732 11.3665 3.5291e-15 -9.56894e-15 5.19709e-15 
Ar 33.9327 26.4218 8.37586 -4.4595e-13 -3.01498e-13 -3.44533e-13 
Ar 29.9215 8.5764 9.394 -2.5532e-10 5.56168e-09 5.92007e-09 
Ar 1.06739 7.18487 34.4309 4.38622e-15 -8.65545e-16 -2.45599e-15 
Ar 24.6647 13.5149 23.5455 2.0859e-13 -3.19976e-13 -3.80625e-13 
Ar 33.7357 13.2378 29.1374 -1.6555e-14 -9.37947e-14 -3.07924e-16 
Ar 2.31939 6.95138 5.68782 -3.76806e-12 -2.57069e-12 -6.39196e-13 
Ar 1.48278 24.1813 34.128 -1.02511e-13 -9.51567e-14 5.91171e-14 
Ar 21.4379 2.06595 10.2107 7.17189e-13 1.19968e-12 -5.58611e-13 
Ar 30.8794 1.99856 6.92025 1.37829e-13 5.62768e-14 -1.00551e-13 
Ar 30.0239 10.8087 11.7702 7.29069e-14 6.1194e-13 -1.38436e-15 
Ar 0.325815 33.8038 29.7389 -7.87419e-13 2.32463e-12 -9.46792e-15 
Ar 27.6113 14.6613 3.57661 -2.68638e-16 2.65352e-16 2.14278e-15 
Ar 10.8074 14.8385 15.8795 -1.23562e-10 -3.5223e-10 -1.7244e-10 
Ar 6.67986 31.866 14.4816 -1.56576e-10 1.32947e-09 -8.36863e-11 
Ar 7.84631 34.711 5.87234 -1.9513e-15 2.60395e-15 -4.68199e-15 
Ar 20.0731 6.41037 14.9414 -8.71747e-12 -2.41081e-11 -2.43967e-11 
Ar 28.7275 19.2168 10.4103 1.28866e-12 -7.15911e-12 5.90701e-12 
