32
comment
Ar 26.9491 8.94682 8.88359 -1.1152e-13 -2.5548e-13 -3.71247e-14 
Ar 22.2553 24.4883 22.7932 2.94051e-12 -1.2317e-12 -1.79223e-12 
Ar 9.23095 3.17009 35.4661 -7.16897e-13 8.37294e-13 3.19026e-13 
Ar 5.08697 8.17281 9.88969 3.25282e-13 2.2844e-14 -5.88352e-13 
Ar 33.8496 15.0332 9.76877 -2.00738e-13 -2.71261e-13 -1.54187e-13 
Ar 4.7547 3.56141 10.0586 5.45348e-14 9.43477e-15 -1.82247e-16 
Ar 3.05327 21.7881 4.72475 1.06939e-13 -2.0502e-13 -1.50919e-13 
Ar 21.3725 25.8773 5.94971 -1.89293e-11 -3.47128e-10 1.52785e-11 
Ar 26.8923 34.8327 33.1213 -2.13188e-13 6.41783e-13 -4.01629e-13 
Ar 29.6489 25.5549 3.31328 -6.76164e-12 8.28818e-13 2.08663e-12 
Ar 22.3801 19.0168 8.66115 -1.38771e-11 8.43221e-12 5.27332e-12 
Ar 20.7027 21.6963 35.387 -3.45488e-13 -9.69551e-14 -1.90173e-13 
Ar 6.37372 9.49925 9.73522 1.40776e-15 6.16402e-15 -1.77083e-15 
Ar 12.7204 16.5047 9.8231 2.53112e-13 -2.16486e-13 -2.10009e-13 
Ar 8.75822 8.42632 25.7032 1.29901e-10 -2.45287e-10 -5.84753e-11 
Ar 15.0186 21.4363 27.4689 -3.36751e-12 9.16942e-13 -8.65516e-13 
Ar 23.6633 8.66534 13.5804 4.68273e-11 -1.2041e-11 -8.29405e-11 
Ar 28.4974 17.5247 6.28844 -5.67248e-14 -6.67443e-14 -8.24846e-14 
Ar 21.6147 30.3177 6.14511 1.66182e-11 -3.53068e-10 -1.37702e-11 
Ar 9.61812 7.70048 13.5539 2.83613e-13 -1.5953e-12 -2.62521e-12 
Ar 28.3258 22.6594 10.9551 -4.27317e-15 1.3452e-14 8.57705e-15 
Ar 23.6213 16.946 32.7183 -5.38778e-14 2.85547e-14 1.29856e-14 
Ar 22.2258 2.47561 10.2841 8.72787e-12 2.46845e-11 7.97851e-12 
Ar 8.74473 12.5733 5.56172 7.31044e-15 -1.12346e-13 -2.29886e-13 
Ar 14.1788 9.23659 8.52387 2.17969e-11 -1.91614e-10 4.97017e-11 
Ar 21.5691 9.5993 0.207144 -2.14581e-13 1.41489e-13 3.01838e-13 
Ar 14.7133 14.0738 9.79667 7.53057e-16 -3.42271e-16 1.1957e-15 
Ar 22.7253 0.56984 25.048 -3.16954e-14 -4.67755e-14 -2.62396e-15 
Ar 2.50619 31.0278 2.58698 2.93211e-13 7.17979e-14 1.34306e-13 
Ar 13.4306 18.1631 15.8757 -2.28472e-12 -2.29706e-11 -5.92822e-11 
Ar 10.0598 18.6714 29.4344 -3.3179e-16 3.38416e-15 4.57776e-15 
Ar 10.905 12.4889 26.6617 8.48306e-11 -2.83741e-10 -2.68527e-10 
