32
comment
Ar -2.84111 -1.93943 16.2283 -81.6583 -68.2004 242.214 
Ar 5.17126 14.3533 0.396129 77.183 174.975 -33.3414 
Ar -13.4731 10.1441 14.8989 -240.345 151.404 183.117 
Ar 7.11178 -21.674 -18.0279 106.146 -323.492 -269.073 
Ar 9.13537 -10.4252 5.64347 97.095 -194.854 5.7234 
Ar 3.62389 -0.0291727 7.96515 54.0879 -39.6891 1.12158 
Ar 5.50817 1.79387 28.8056 42.9577 26.7741 312.174 
Ar 0.933441 19.7609 0.777669 13.9319 294.939 -66.9005 
Ar -9.38375 -0.396922 13.5199 -179.31 -123.685 201.79 
Ar 6.00002 7.24162 18.8146 89.5525 -9.67731 241.561 
Ar -2.43235 2.12689 -5.04803 -75.5575 -46.7628 -114.597 
Ar -2.39463 1.87168 1.51245 -35.7408 -50.5719 22.5738 
Ar 7.82391 -9.70805 6.53291 77.521 -262.657 18.9987 
Ar 7.54851 1.06231 19.9577 112.664 -101.906 180.115 
Ar -1.13349 12.5177 1.76758 -56.1715 108.323 -91.3793 
Ar 19.0409 -0.838141 -11.318 284.192 -91.017 -247.432 
Ar 2.32775 -2.71745 2.71029 -83.0186 -79.8127 40.4521 
Ar -15.7066 6.35635 -19.4832 -312.934 55.6172 -330.047 
Ar 8.26815 6.91302 -0.0406976 5.64408 103.179 -39.8612 
Ar 9.19484 -5.94694 -4.43532 58.729 -88.7604 -66.1989 
Ar -19.5404 1.32315 2.08175 -409.408 -19.5053 -47.4366 
Ar 23.1267 -13.9068 7.69986 266.667 -246.817 -2.83797 
Ar 33.4504 -12.1107 17.7272 381.498 -180.756 146.824 
Ar 17.5982 14.1163 8.07251 184.152 210.691 41.9777 
Ar 11.8523 17.3821 10.1965 59.1381 141.672 152.187 
Ar -3.64203 11.3835 19.3298 -132.866 52.1416 249.251 
Ar 6.71741 15.0016 4.77593 -17.5013 145.397 32.0288 
Ar -4.40948 12.7776 -6.92308 -144.321 112.202 -103.33 
Ar 18.7494 6.13206 7.99413 162.08 -26.2379 40.8078 
Ar 16.5417 4.81792 9.9753 168.384 -45.852 31.1239 
Ar 14.9912 1.45539 5.73069 105.988 -56.7853 -32.2285 
Ar 3.96529 10.952 15.9893 -19.3241 84.9556 160.139 
