32
comment
Ar 3.00357e+09 6.49028e+09 9.64658e+08 -3.00357e+13 -6.49028e+13 -9.64658e+12 
Ar 49.2935 6.9943 1.91664 137716 100359 48713.2 
Ar 4.08274 7.55983 0.799368 -6114.21 4256.68 4925.97 
Ar 1.35161e+10 2.92062e+10 4.34096e+09 1.50178e+13 3.24514e+13 4.82329e+12 
Ar 3.34085 1.13139 5.27277 87.5403 -198.852 -3.14876 
Ar 11596 9645.64 20898.9 7.83501e+06 6.53278e+06 1.4036e+07 
Ar 2.95632 0.214971 10.2522 42.9129 29.0304 310.041 
Ar 2.65398e+09 8.81648 5.88209 1.8957e+12 -1.86224e+12 -1.99234e+12 
Ar 7.4599 17.3708 6.448 -5430.74 -138865 17313.5 
Ar 0.722313 7.77479 4.51983 108.78 -29.7746 282.977 
Ar 67953.2 52745.3 102079 6.18797e+07 4.80516e+07 9.29019e+07 
Ar 0.27937 935.02 1.80833 -163366 1.65295e+06 -987030 
Ar 3.25266 5.83096 5.46635 109.965 -280.037 55.0312 
Ar 7.02858e+09 4.89648e+11 6.47224e+10 2.7033e+12 1.88326e+14 2.48932e+13 
Ar 27867.1 1.91641e+06 88934.4 -2.78589e+08 9.1268e+08 -8.89312e+08 
Ar 3491.7 2739.99 5350.74 -3.49011e+07 -2.73545e+07 -5.34746e+07 
Ar 7.1732 2.08917 0.526321 -240.989 -9.13477 331.131 
Ar 190.762 73.8905 113.151 -1.87143e+06 -710767 141342 
Ar 7.92163 0.808957 2.31794 1.08984 114.251 -48.7664 
Ar 5.70926 9.85525 10.0216 59.2514 -90.7673 -67.9673 
Ar 1604.87 2.24448 6238.1 604836 -7.64311e+06 2.05301e+06 
Ar 7.29242 0.753794 7.82558 309.323 -246.798 24.8372 
Ar 0.261289 9.1748 9.00243 379.799 -182.524 145.716 
Ar 6.09712 11905.6 5.31178 -302528 3.82522e+06 -1.02734e+06 
Ar 8.33866 8.95391 1.16693 58.7847 137.89 155.112 
Ar 4.23133 8.25419 4.5494 -139.608 40.1479 257.848 
Ar 7.75698 6.3738 2.88119 -14.4349 150.219 40.4367 
Ar 4.34933 6.20935 9.81762 602.923 496.26 245.303 
Ar 10.0871 8.09052 6.61065 1028.64 323.362 970.9 
Ar 151.348 4.27712 2.55598 153638 5881.5 54281.5 
Ar 10.491 9.81175 3.91635 10168.4 97644.5 -25033.2 
Ar 5.04224 5.93529 6.46006 -70.8175 94.6888 139.898 
