32
comment
Ar -1.2896 -0.643618 11.6263 -81.6583 -68.2004 242.214 
Ar 3.70479 11.0288 1.02961 77.183 174.975 -33.3414 
Ar -8.90657 7.2674 11.4196 -240.345 151.404 183.117 
Ar 5.095 -15.5276 -12.9155 106.146 -323.492 -269.073 
Ar 7.29056 -6.72297 5.53472 97.095 -194.854 5.7234 
Ar 2.59622 0.724921 7.94384 54.0879 -39.6891 1.12158 
Ar 4.69197 1.28516 22.8743 42.9577 26.7741 312.174 
Ar 0.668734 14.1571 2.04878 13.9319 294.939 -66.9005 
Ar -5.97687 1.9531 9.68591 -179.31 -123.685 201.79 
Ar 4.29852 7.42549 14.2249 89.5525 -9.67731 241.561 
Ar -0.996758 3.01538 -2.87068 -75.5575 -46.7628 -114.597 
Ar -1.71556 2.83255 1.08354 -35.7408 -50.5719 22.5738 
Ar 6.35101 -4.71756 6.17194 77.521 -262.657 18.9987 
Ar 5.40789 2.99852 16.5355 112.664 -101.906 180.115 
Ar -0.0662323 10.4595 3.50379 -56.1715 108.323 -91.3793 
Ar 13.6412 0.891183 -6.61676 284.192 -91.017 -247.432 
Ar 3.90511 -1.20101 1.9417 -83.0186 -79.8127 40.4521 
Ar -9.76084 5.29963 -13.2123 -312.934 55.6172 -330.047 
Ar 8.16092 4.95261 0.716664 5.64408 103.179 -39.8612 
Ar 8.07899 -4.2605 -3.17755 58.729 -88.7604 -66.1989 
Ar -11.7616 1.69375 2.98304 -409.408 -19.5053 -47.4366 
Ar 18.06 -9.21723 7.75378 266.667 -246.817 -2.83797 
Ar 26.2019 -8.6763 14.9375 381.498 -180.756 146.824 
Ar 14.0993 10.1132 7.27493 184.152 210.691 41.9777 
Ar 10.7286 14.6903 7.30497 59.1381 141.672 152.187 
Ar -1.11758 10.3928 14.5941 -132.866 52.1416 249.251 
Ar 7.04994 12.239 4.16738 -17.5013 145.397 32.0288 
Ar -1.66739 10.6457 -4.95982 -144.321 112.202 -103.33 
Ar 15.6698 6.63058 7.21878 162.08 -26.2379 40.8078 
Ar 13.3424 5.6891 9.38395 168.384 -45.852 31.1239 
Ar 12.9774 2.53431 6.34303 105.988 -56.7853 -32.2285 
Ar 4.33245 9.33787 12.9467 -19.3241 84.9556 160.139 
