32
comment
Ar -2.43281 -1.59842 15.0173 -81.6583 -68.2004 242.214 
Ar 4.78535 13.4784 0.562836 77.183 174.975 -33.3414 
Ar -12.2714 9.38706 13.9833 -240.345 151.404 183.117 
Ar 6.58105 -20.0565 -16.6825 106.146 -323.492 -269.073 
Ar 8.64989 -9.45092 5.61485 97.095 -194.854 5.7234 
Ar 3.35345 0.169273 7.95954 54.0879 -39.6891 1.12158 
Ar 5.29338 1.66 27.2448 42.9577 26.7741 312.174 
Ar 0.863781 18.2862 1.11217 13.9319 294.939 -66.9005 
Ar -8.4872 0.221505 12.511 -179.31 -123.685 201.79 
Ar 5.55226 7.29001 17.6068 89.5525 -9.67731 241.561 
Ar -2.05456 2.3607 -4.47504 -75.5575 -46.7628 -114.597 
Ar -2.21593 2.12454 1.39958 -35.7408 -50.5719 22.5738 
Ar 7.4363 -8.39476 6.43792 77.521 -262.657 18.9987 
Ar 6.98519 1.57184 19.0571 112.664 -101.906 180.115 
Ar -0.852633 11.976 2.22448 -56.1715 108.323 -91.3793 
Ar 17.6199 -0.383056 -10.0808 284.192 -91.017 -247.432 
Ar 2.74285 -2.31839 2.50803 -83.0186 -79.8127 40.4521 
Ar -14.1419 6.07827 -17.8329 -312.934 55.6172 -330.047 
Ar 8.23993 6.39712 0.158608 5.64408 103.179 -39.8612 
Ar 8.9012 -5.50314 -4.10433 58.729 -88.7604 -66.1989 
Ar -17.4933 1.42067 2.31893 -409.408 -19.5053 -47.4366 
Ar 21.7934 -12.6727 7.71405 266.667 -246.817 -2.83797 
Ar 31.5429 -11.2069 16.9931 381.498 -180.756 146.824 
Ar 16.6774 13.0628 7.86262 184.152 210.691 41.9777 
Ar 11.5566 16.6737 9.43558 59.1381 141.672 152.187 
Ar -2.9777 11.1228 18.0836 -132.866 52.1416 249.251 
Ar 6.80492 14.2746 4.61578 -17.5013 145.397 32.0288 
Ar -3.68787 12.2166 -6.40643 -144.321 112.202 -103.33 
Ar 17.939 6.26325 7.79009 162.08 -26.2379 40.8078 
Ar 15.6998 5.04718 9.81968 168.384 -45.852 31.1239 
Ar 14.4613 1.73931 5.89184 105.988 -56.7853 -32.2285 
Ar 4.06191 10.5272 15.1886 -19.3241 84.9556 160.139 
