32
comment
Ar -4.88256 -3.64443 22.2837 -81.6583 -68.2004 242.214 
Ar 7.10084 18.7277 -0.437405 77.183 174.975 -33.3414 
Ar -19.4818 13.9292 19.4768 -240.345 151.404 183.117 
Ar 9.76542 -29.7613 -24.7547 106.146 -323.492 -269.073 
Ar 11.5627 -15.2965 5.78655 97.095 -194.854 5.7234 
Ar 4.97609 -1.0214 7.99319 54.0879 -39.6891 1.12158 
Ar 6.58211 2.46322 36.61 42.9577 26.7741 312.174 
Ar 1.28174 27.1344 -0.894842 13.9319 294.939 -66.9005 
Ar -13.8665 -3.48906 18.5647 -179.31 -123.685 201.79 
Ar 8.23883 6.99969 24.8536 89.5525 -9.67731 241.561 
Ar -4.32129 0.957819 -7.91297 -75.5575 -46.7628 -114.597 
Ar -3.28815 0.607385 2.07679 -35.7408 -50.5719 22.5738 
Ar 9.76193 -16.2745 7.00788 77.521 -262.657 18.9987 
Ar 10.3651 -1.48533 24.4606 112.664 -101.906 180.115 
Ar -2.53778 15.2257 -0.516899 -56.1715 108.323 -91.3793 
Ar 26.1457 -3.11357 -17.5038 284.192 -91.017 -247.432 
Ar 0.252288 -4.71277 3.72159 -83.0186 -79.8127 40.4521 
Ar -23.53 7.74679 -27.7344 -312.934 55.6172 -330.047 
Ar 8.40926 9.49251 -1.03723 5.64408 103.179 -39.8612 
Ar 10.6631 -8.16595 -6.0903 58.729 -88.7604 -66.1989 
Ar -29.7756 0.835516 0.895834 -409.408 -19.5053 -47.4366 
Ar 29.7934 -20.0772 7.62891 266.667 -246.817 -2.83797 
Ar 42.9878 -16.6296 21.3978 381.498 -180.756 146.824 
Ar 22.202 19.3836 9.12195 184.152 210.691 41.9777 
Ar 13.3307 20.9239 14.0012 59.1381 141.672 152.187 
Ar -6.96369 12.687 25.5611 -132.866 52.1416 249.251 
Ar 6.27988 18.6365 5.57665 -17.5013 145.397 32.0288 
Ar -8.01749 15.5826 -9.50632 -144.321 112.202 -103.33 
Ar 22.8014 5.47611 9.01432 162.08 -26.2379 40.8078 
Ar 20.7513 3.67162 10.7534 168.384 -45.852 31.1239 
Ar 17.6409 0.0357531 4.92498 105.988 -56.7853 -32.2285 
Ar 3.48219 13.0759 19.9928 -19.3241 84.9556 160.139 
