32
comment
Ar 35.135 4.0167 0.000307443 8.79448e-09 2.17519e-08 -2.97425e-08 
Ar 7.19222e-05 2.32078 2.31924 2.81021e-15 1.79683e-16 -1.38043e-16 
Ar 18.1866 10.7451 23.5534 -6.06714 -10.103 4.02396 
Ar 34.119 21.7708 20.67 -1.8963e-12 1.19026e-12 2.76148e-12 
Ar 3.40567 3.40314 14.2425 -1.79119e-13 -3.82086e-15 1.11029e-12 
Ar 1.93308e-05 2.33307 7.89893 1.97674e-13 6.22237e-14 6.73295e-13 
Ar 19.1733 2.53656e-05 8.82416 -3.76849e-13 3.39806e-13 -1.55008e-13 
Ar 3.11237 24.8598 27.8912 -1.63285e-05 -1.63289e-05 -1.17497e-11 
Ar 1.40631 8.82364 0.000183893 9.80579e-12 -2.55546e-11 1.65105e-11 
Ar 12.2838 9.06795 3.28599 -982.04 0.17187 -983.512 
Ar 3.46249 14.1814 3.46229 -8.517e-12 2.76267e-11 -1.64475e-11 
Ar 2.34812 14.2425 2.53656e-05 2.71489e-10 1.03777e-10 -7.83204e-10 
Ar 13.2661 7.89869 14.2425 3.1953e-10 6.6538e-11 5.10483e-15 
Ar 24.3795 9.51502 7.56686 -1.46449e-13 -6.16367e-14 -8.52291e-14 
Ar 14.1905 13.3174 7.89846 -647.506 660.927 -1.06257 
Ar 0.000217021 14.2421 14.242 7.97998e-13 1.13776e-12 1.23207e-12 
Ar 8.82373 1.40647 11.2096 2.49025e-15 6.48638e-16 -1.6077e-15 
Ar 14.2412 3.4029 3.40051 1.87593e-11 6.11208e-11 7.71321e-12 
Ar 8.82392 8.63698e-05 19.1732 2.02714e-14 9.7863e-15 -1.82379e-14 
Ar 14.2426 21.3402 24.2349 6.63108e-17 7.75847e-13 8.87363e-13 
Ar 8.82326 12.3417 14.2424 -4.11468e-13 -1.94378e-09 -5.81799e-14 
Ar 14.2419 13.2649 7.89854 647.506 -660.927 1.06257 
Ar 8.82435 32.6399 7.89926 -1.20922e-13 -4.33721e-13 -8.55541e-14 
Ar 14.2423 0.000165202 14.2422 4.17417e-11 2.09965e-11 2.37359e-11 
Ar 25.5687 5.75442 26.7438 -9.51658e-17 1.34397e-16 5.85875e-16 
Ar 14.2418 8.82395 12.3426 -1.70804e-13 4.81888e-14 -1.92849e-09 
Ar 8.82334 14.2418 12.3416 -9.73272e-14 1.90978e-13 -1.93919e-09 
Ar 14.2423 14.268 31.754 1.26542e-12 3.88014e-11 -9.27501e-10 
Ar 8.824 8.82385 14.2425 -5.17964e-15 -5.95071e-15 -1.73239e-14 
Ar 14.2422 8.82384 8.82344 2.18638e-14 -1.03797e-13 2.3474e-13 
Ar 8.82349 14.2415 8.82339 -9.86742e-14 7.7977e-16 2.36343e-13 
Ar 14.2415 14.2423 32.3688 0.0586173 1.79963 41.7594 
