32
comment
Ar -1.61623 -0.91642 12.5951 -81.6583 -68.2004 242.214 
Ar 4.01352 11.7287 0.896249 77.183 174.975 -33.3414 
Ar -9.86795 7.87302 12.1521 -240.345 151.404 183.117 
Ar 5.51959 -16.8216 -13.9918 106.146 -323.492 -269.073 
Ar 7.67894 -7.50238 5.55762 97.095 -194.854 5.7234 
Ar 2.81257 0.566164 7.94832 54.0879 -39.6891 1.12158 
Ar 4.8638 1.39226 24.123 42.9577 26.7741 312.174 
Ar 0.724461 15.3368 1.78118 13.9319 294.939 -66.9005 
Ar -6.69411 1.45836 10.4931 -179.31 -123.685 201.79 
Ar 4.65673 7.38678 15.1912 89.5525 -9.67731 241.561 
Ar -1.29899 2.82833 -3.32907 -75.5575 -46.7628 -114.597 
Ar -1.85852 2.63026 1.17384 -35.7408 -50.5719 22.5738 
Ar 6.66109 -5.76819 6.24793 77.521 -262.657 18.9987 
Ar 5.85854 2.5909 17.256 112.664 -101.906 180.115 
Ar -0.290918 10.8928 3.13827 -56.1715 108.323 -91.3793 
Ar 14.778 0.527115 -7.60649 284.192 -91.017 -247.432 
Ar 3.57303 -1.52026 2.10351 -83.0186 -79.8127 40.4521 
Ar -11.0126 5.5221 -14.5325 -312.934 55.6172 -330.047 
Ar 8.18349 5.36533 0.55722 5.64408 103.179 -39.8612 
Ar 8.31391 -4.61554 -3.44234 58.729 -88.7604 -66.1989 
Ar -13.3992 1.61573 2.7933 -409.408 -19.5053 -47.4366 
Ar 19.1267 -10.2045 7.74243 266.667 -246.817 -2.83797 
Ar 27.7279 -9.39933 15.5248 381.498 -180.756 146.824 
Ar 14.8359 10.9559 7.44284 184.152 210.691 41.9777 
Ar 10.9652 15.257 7.91372 59.1381 141.672 152.187 
Ar -1.64904 10.6014 15.5911 -132.866 52.1416 249.251 
Ar 6.97993 12.8206 4.2955 -17.5013 145.397 32.0288 
Ar -2.24467 11.0945 -5.37314 -144.321 112.202 -103.33 
Ar 16.3182 6.52563 7.38201 162.08 -26.2379 40.8078 
Ar 14.016 5.5057 9.50844 168.384 -45.852 31.1239 
Ar 13.4014 2.30716 6.21412 105.988 -56.7853 -32.2285 
Ar 4.25515 9.67769 13.5872 -19.3241 84.9556 160.139 
