32
comment
Ar 1.97268 26.8411 15.7847 8.67379e-11 -1.30008e-10 1.54852e-10 
Ar 18.7707 15.9668 4.16581 -9.88869e-14 4.66622e-14 -6.17533e-14 
Ar 7.31647 13.0508 9.04957 -7.35414e-11 4.8311e-11 1.01729e-10 
Ar 9.99657 13.1707 1.35508 1.4428e-13 6.00962e-14 2.8826e-13 
Ar 4.37553 14.9816 13.1211 -2.54522e-12 1.4782e-12 3.63172e-12 
Ar 4.12956 1.4453 25.2169 2.41619e-15 6.51508e-15 -1.94981e-16 
Ar 16.6971 5.13994 33.3614 5.62103e-12 8.05965e-12 -5.73445e-13 
Ar 21.3006 11.6663 33.8264 -1.01635e-08 2.52696e-08 -1.21417e-08 
Ar 5.93371 24.7487 6.86807 -6.77346e-13 9.73154e-13 -2.24992e-12 
Ar 27.0851 9.18225 15.8769 1.01502e-13 -3.87404e-13 -3.56425e-14 
Ar 12.2337 21.8432 7.41061 -1.90004e-11 -1.57098e-12 -1.69163e-11 
Ar 12.3036 23.7369 5.13994 -7.95113e-10 -2.37669e-08 2.85388e-08 
Ar 7.70957 10.5534 2.36225 -2.99187e-14 -2.51002e-14 7.35578e-14 
Ar 31.9274 16.6862 6.2154 1.08116e-11 -1.47724e-11 1.06927e-11 
Ar 13.2646 32.2838 20.0766 4.48568e-14 -3.13451e-14 1.2685e-15 
Ar 15.3765 8.66316 18.726 3.15078e-12 -3.1247e-12 -2.2343e-12 
Ar 21.7979 27.0689 1.14532 1.08858e-15 2.10057e-16 4.83803e-16 
Ar 0.0270378 23.9441 12.2995 2.94481e-14 3.27011e-13 3.56546e-13 
Ar 19.1387 17.0415 0.596427 1.01479e-08 -2.52303e-08 -1.21603e-08 
Ar 12.2819 8.3292 19.252 1.4257e-13 -1.14185e-13 -2.91668e-13 
Ar 34.3408 27.3952 18.658 6.85818e-14 -2.37465e-13 3.02073e-13 
Ar 35.5945 21.6525 2.67922 -1.92992e-11 -1.15394e-11 -1.80847e-11 
Ar 9.81176 3.14191 14.7756 1.09613e-15 1.53535e-15 -5.44955e-16 
Ar 8.77608 13.6602 28.3018 1.51387e-12 -1.66772e-12 -7.09939e-12 
Ar 0.76053 15.6981 21.3381 2.95402e-12 1.56664e-13 -3.92132e-12 
Ar 17.6148 4.85322 7.83982 1.14664e-14 -4.75558e-14 -1.15221e-14 
Ar 17.3986 21.4114 2.81269 -1.31024e-11 -1.81861e-10 -1.28907e-11 
Ar 20.0625 13.9854 25.4392 5.6334e-15 5.04986e-15 1.15175e-15 
Ar 25.2061 7.8937 22.3142 8.89113e-15 5.24063e-15 1.79963e-15 
Ar 2.01348 5.78356 24.2783 9.84836e-11 -1.966e-10 -4.21767e-11 
Ar 7.59498 19.9511 20.1672 5.50877e-16 4.37683e-16 -4.68575e-16 
Ar 0.727689 35.1364 28.3902 1.04474e-13 3.0636e-13 -3.51963e-13 
