32
comment
Ar 26.315 28.8364 7.35537 -2.16653e-12 -1.53223e-11 -1.99575e-11 
Ar 16.2307 14.1327 11.0299 8.72733e-14 9.65215e-14 5.35038e-15 
Ar 0.834736 28.0633 9.06786 5.88829e-11 2.34026e-11 -2.95296e-11 
Ar 3.64502 3.14445 2.42901 -3.01246e-10 -2.22201e-10 -2.30029e-11 
Ar 21.1334 14.4826 30.8284 -4.18799e-14 -1.12725e-13 -6.49713e-14 
Ar 22.6377 19.1246 31.7219 9.74654e-11 -1.93935e-10 6.15668e-11 
Ar 25.0432 25.712 0.348741 3.02661e-14 1.63003e-14 3.90622e-14 
Ar 16.4443 23.4594 10.4662 1.89157e-12 7.1034e-13 5.74527e-12 
Ar 7.07154 14.158 7.95306 -5.57435e-13 -1.33905e-12 -1.76474e-14 
Ar 3.78414 24.6032 11.175 -5.37779e-16 1.73794e-14 2.0093e-15 
Ar 29.3387 30.1878 31.6665 -1.85806e-12 -8.63069e-13 -1.1142e-13 
Ar 15.6255 26.7123 25.7132 9.70763e-13 -1.08056e-12 7.41067e-12 
Ar 0.188434 5.69091 2.69103 3.01625e-10 -2.21457e-10 -2.26427e-11 
Ar 32.5149 29.7482 24.9252 2.47856e-13 2.14542e-13 -2.80821e-13 
Ar 17.1649 31.2499 34.7363 2.42434e-12 2.67072e-12 -2.51159e-12 
Ar 27.0837 24.7408 12.9007 -4.81436e-12 1.55389e-11 -2.11262e-11 
Ar 29.4832 33.9082 20.8564 -1.29835e-13 -5.79269e-14 4.18379e-14 
Ar 4.19495 20.7624 30.2482 3.04451e-13 5.55303e-14 -2.8923e-13 
Ar 2.42533 25.6171 31.5697 9.92692e-12 1.09032e-11 -1.26151e-12 
Ar 18.869 0.801087 3.80972 -7.02553e-15 -8.42039e-15 9.26961e-14 
Ar 11.5282 17.7649 9.80054 1.09894e-12 7.46303e-13 1.19073e-13 
Ar 19.5884 34.7009 21.7247 2.71065e-14 1.27099e-14 -9.72252e-15 
Ar 34.92 18.8686 31.9087 -9.30028e-11 4.53068e-11 -2.91476e-11 
Ar 18.9108 35.5162 18.6672 1.94172e-09 -2.32657e-09 8.7581e-09 
Ar 34.2302 31.4695 13.5683 8.98309e-16 1.46108e-15 2.29317e-16 
Ar 27.8498 20.2854 35.3759 2.55815e-11 -8.76518e-12 2.85255e-11 
Ar 2.99889 23.8223 8.16567 1.28208e-15 3.0906e-15 8.75028e-16 
Ar 5.90902 26.1398 11.4739 -1.49003e-07 1.0781e-07 2.08209e-08 
Ar 8.77346 15.844 29.4597 -5.79062e-14 -5.18519e-14 -1.66368e-13 
Ar 16.6258 27.8636 17.5899 3.82026e-12 8.24413e-12 -4.99826e-12 
Ar 10.3619 31.3122 23.0822 -1.68271e-11 1.02741e-11 -2.03548e-12 
Ar 33.6944 4.65932 12.0515 8.79376e-11 8.00062e-10 -9.59749e-10 
