32
comment
Ar 1.15759 1.16535 1.70099e-08 -2.52046 33.4486 4.04135e-07 
Ar 3.97846e-09 1.16526 1.16526 1.66728e-07 33.0133 33.0134 
Ar 1.16521 1.07172e-08 1.16521 -2.07226 9.15234e-09 -2.07226 
Ar 4.77125e-09 13.5694 13.5694 -0.203795 -12.541 -8.66666 
Ar 1.16532 1.16532 11.9928 33.2911 33.2912 4.12033e-07 
Ar 1.05505e-09 1.16526 0.544112 -4.17251e-09 -1.83189 -0.237205 
Ar 2.12824 1.4019e-09 0.544163 1.19106e-06 1.09894e-12 -1.18992e-06 
Ar 35.8206 35.8206 11.9928 -6.65681e-05 -6.65681e-05 1.47668e-12 
Ar 1.16521 0.544163 1.01721e-08 -2.06908 -1.24901e-05 3.0099e-09 
Ar 3.92891e-09 0.544163 1.16521 -8.22678e-10 -1.24668e-05 -2.06908 
Ar 1.16532 11.9928 1.16532 33.3066 -0.015543 33.3066 
Ar 13.5769 11.9928 1.4019e-09 -8.46595e-13 -1.95457e-12 1.05081e-12 
Ar 1.17181 0.544112 11.9928 28.5327 -0.237206 -9.03702e-08 
Ar 0.00134922 13.6523 13.6266 0.206694 400087 400083 
Ar 1.17186 11.9928 0.544112 28.7699 -0.237192 -0.237205 
Ar 1.24018e-08 11.9928 11.9928 -5.68781e-10 1.98042e-06 1.96935e-06 
Ar 0.544163 1.16521 14.5073 -1.25658e-05 -2.06908 -6.00083e-09 
Ar 11.9928 1.16532 1.16532 -4.06572e-06 33.2912 33.2913 
Ar 0.544163 4.77125e-09 2.12824 -2.03465e-09 4.39076e-12 3.14989e-09 
Ar 11.9928 12.6064 13.5694 1.14757e-08 -2.07872 -0.00599169 
Ar 0.544163 1.17176 11.9928 -1.45359e-05 28.2955 -3.26731e-07 
Ar 11.9928 1.17181 0.544112 3.79267e-07 28.5327 -0.237205 
Ar 0.544163 12.6205 0.544112 8.85603e-07 28.5327 -0.237192 
Ar 11.9928 9.52798e-09 11.9928 1.21012e-11 1.01175e-11 3.99015e-12 
Ar 14.0857 17.5445 14.5062 400075 3628.3 -0.00241218 
Ar 11.9928 0.544163 1.17176 -1.00567e-06 -1.22399e-05 28.2954 
Ar 0.544163 11.9928 1.17176 -1.2969e-05 6.03903e-07 28.2955 
Ar 11.9928 11.9928 12.6204 -4.18744e-07 0.00651445 28.3057 
Ar 0.544163 0.544163 11.9928 -1.07579e-05 -1.07579e-05 1.90221e-12 
Ar 11.9928 0.544163 0.544163 7.47611e-12 -1.07579e-05 -1.07578e-05 
Ar 0.544163 11.9928 0.544163 -1.07579e-05 -1.06603e-05 -1.07578e-05 
Ar 11.9928 11.9928 11.9986 -3.63048e-07 8.42135e-05 26.7409 
