32
comment
Ar 2.42714 2.46001 0.609826 -79.0331 -67.3607 247.25 
Ar 0.196222 3.06785 2.54796 80.4126 175.544 -32.1266 
Ar 2.0287 0.381831 3.08941 -241.001 154.636 184.892 
Ar 0.265526 9.77468 9.90001 106.271 -325.336 -270.571 
Ar 2.8724 2.14217 5.27345 96.5688 -195.811 4.61635 
Ar 0.136908 2.53057 7.89104 55.4164 -39.9601 -0.345785 
Ar 2.73744 0.0685715 8.669 42.9884 28.0203 311.103 
Ar 0.0373529 0.739425 5.09213 16.5292 296.717 -67.7715 
Ar 2.18167 7.57973 0.506654 -179.393 -124.746 203.789 
Ar 0.226018 7.86403 3.23455 91.4514 -11.3688 242.08 
Ar 2.4404 5.1426 2.34458 -76.6095 -47.4397 -113.608 
Ar 10.4364 5.13359 0.057077 -36.839 -50.5459 23.0736 
Ar 2.8242 7.23026 5.30725 78.0471 -265.624 18.8041 
Ar 0.283094 7.63531 8.34046 113.954 -101.134 180.857 
Ar 2.48989 5.53171 7.65932 -55.9662 109.511 -93.4741 
Ar 0.713397 5.03252 4.64014 286.867 -90.9157 -249.206 
Ar 7.68216 2.43077 0.102933 -83.264 -79.7141 41.9555 
Ar 4.47538 2.76909 1.80471 -316.875 55.5191 -331.336 
Ar 7.90293 0.259743 2.53077 4.69535 104.677 -39.5891 
Ar 5.40722 10.3152 10.3668 59.0363 -89.3777 -66.9991 
Ar 6.86276 2.58007 5.14187 -413.746 -22.6316 -46.358 
Ar 5.92657 2.0134 7.87989 266.712 -246.666 -6.02599 
Ar 8.8427 10.1033 8.25685 380.688 -181.518 146.617 
Ar 5.72109 0.531243 5.3649 186.009 216.748 42.1196 
Ar 8.03776 8.24296 0.381548 59.0894 140.682 153.035 
Ar 4.92732 8.01843 3.25424 -133.514 50.4911 250.398 
Ar 7.84527 5.62384 2.71021 -18.177 145.826 32.1651 
Ar 4.89916 5.54088 10.2803 -144.349 112.635 -105.099 
Ar 8.29353 7.82316 5.36249 160.76 -27.2544 41.1912 
Ar 5.68127 7.77382 7.96726 168.567 -47.2461 30.7299 
Ar 8.15273 5.11826 7.80815 104.206 -56.5254 -33.2599 
Ar 5.21125 5.47299 5.66071 -19.9657 85.7558 160.519 
