32
comment
Ar 2.23467 29.7657 24.3913 1.71998e-13 1.46549e-13 -5.67714e-14 
Ar 34.2859 14.8085 19.2411 1.77739e-14 -5.86199e-14 2.05903e-14 
Ar 6.98551 5.56378 1.74328 2.91018e-13 3.22588e-14 3.44407e-14 
Ar 23.9745 21.0469 2.69658 9.63699e-14 1.0394e-12 -7.67269e-13 
Ar 16.9406 29.126 28.9546 -5.08799e-14 4.20773e-14 -2.29421e-13 
Ar 13.073 7.75986 0.784713 5.13343e-13 -9.0945e-15 3.60859e-13 
Ar 32.3239 1.33538 25.4269 -4.42283e-14 1.46949e-13 -7.89683e-14 
Ar 4.39844 6.54873 8.8171 -5.92757e-12 -1.27399e-12 1.38331e-11 
Ar 32.4187 12.3197 13.6413 -3.11681e-15 -9.00027e-14 -6.08908e-14 
Ar 12.4019 22.6395 10.2482 -9.03275e-14 -1.30159e-13 5.14921e-14 
Ar 10.7814 5.83753 18.1531 -1.35122e-10 -9.94902e-10 -4.22015e-10 
Ar 12.232 7.00642 1.33538 -5.81271e-14 -5.21648e-14 3.7984e-14 
Ar 18.4464 16.2737 22.6902 -2.28926e-13 -5.21047e-13 -6.04692e-14 
Ar 35.3053 15.2426 20.681 1.47836e-05 6.2956e-06 -2.08808e-05 
Ar 35.1566 17.633 33.4193 -6.15289e-13 1.65415e-13 -8.47553e-13 
Ar 22.0263 18.852 15.0797 -2.18022e-13 9.32333e-13 6.02298e-13 
Ar 35.0397 22.9966 4.94578 4.83458e-17 7.75569e-17 1.70104e-16 
Ar 6.31748 3.88297 5.87443 -1.09946e-14 4.74671e-14 -6.92744e-14 
Ar 21.1273 10.7711 27.2712 -1.06732e-12 -1.15606e-12 -1.03549e-13 
Ar 14.2521 35.6518 4.08867 -1.85477e-13 -1.5576e-13 -1.01087e-13 
Ar 19.9231 30.4859 30.9315 -3.47857e-12 -9.00847e-12 -1.37526e-12 
Ar 22.7161 2.0417 29.7387 6.26193e-13 2.54685e-14 7.41374e-13 
Ar 15.7084 9.91768 1.36678 5.65337e-13 1.11573e-12 -1.28184e-12 
Ar 22.5297 7.25746 29.2569 -4.28289e-13 5.49981e-13 -4.05939e-13 
Ar 3.26448 11.3956 13.5334 6.28028e-16 5.1135e-17 -6.10246e-17 
Ar 12.8624 16.9406 27.8327 -1.59018e-13 4.4579e-13 -1.03455e-12 
Ar 15.4808 5.69747 19.227 -2.41988e-10 -8.82666e-12 -5.41352e-11 
Ar 11.3464 12.6951 17.9699 5.07392e-12 -1.53097e-10 -5.20302e-11 
Ar 19.7668 12.0814 34.4241 -1.04035e-10 -7.10554e-11 -1.00365e-10 
Ar 29.9952 2.42527 2.39508 7.76994e-16 3.39908e-16 1.2532e-15 
Ar 11.2283 9.1282 16.7573 1.73576e-10 8.04757e-10 4.48814e-10 
Ar 23.7244 27.7507 9.2444 4.01464e-16 1.87096e-15 -6.40466e-17 
