32
comment
Ar 17.8903 2.5789 7.21644 1.18705e-14 1.56731e-14 -9.73581e-15 
Ar 3.57283 29.9799 33.6788 1.86075e-14 -9.48656e-15 -1.28403e-14 
Ar 28.8679 27.5336 24.7083 -5.05095e-14 2.13411e-12 7.88156e-12 
Ar 4.50147 3.09482 19.4209 2.76018e-12 -8.90721e-12 6.77202e-12 
Ar 28.7824 12.2824 17.4732 1.05638e-12 1.79829e-12 1.44007e-12 
Ar 15.4274 1.51156 25.4341 1.37491e-12 -7.76203e-14 -4.12174e-14 
Ar 5.251 6.96087 0.637237 -2.14879e-05 -9.41629e-06 -1.90163e-05 
Ar 12.9274 13.1738 11.7759 7.42291e-14 -4.98803e-14 1.21788e-14 
Ar 21.5032 34.9844 16.0568 -9.39849e-13 -1.05486e-12 -7.77972e-13 
Ar 20.1525 11.7332 9.42737 2.34492e-12 1.14086e-12 2.34859e-13 
Ar 33.0377 18.9168 23.1497 -1.00488e-14 8.0253e-15 9.90963e-15 
Ar 25.8497 3.71472 28.5399 3.05892e-15 6.06406e-15 3.10671e-15 
Ar 3.50736 25.3095 21.0148 1.37729e-15 2.24632e-15 -1.52659e-15 
Ar 27.8062 32.8457 17.0409 -2.55712e-13 -7.87949e-14 2.52601e-13 
Ar 6.52951 2.0779 31.1476 -1.06304e-14 2.16311e-11 1.65284e-11 
Ar 11.883 0.0367388 23.6718 -8.34793e-14 3.05575e-14 1.50539e-13 
Ar 24.1448 8.79888 32.1017 6.9759e-12 -1.31405e-11 2.39424e-11 
Ar 18.8446 1.92722 0.0500034 -4.23572e-14 5.7297e-14 1.89347e-14 
Ar 35.1094 21.6707 18.3782 -6.65872e-11 -1.86264e-12 -8.62697e-11 
Ar 28.9234 29.7743 16.8551 -2.60881e-09 -7.17966e-09 -4.26308e-10 
Ar 6.43211 32.9509 14.8134 1.91342e-12 -1.07922e-11 8.97127e-12 
Ar 35.1977 24.9859 10.8534 3.05149e-14 8.30043e-14 -5.83375e-13 
Ar 35.7277 23.2793 34.891 -4.05702e-14 4.66307e-13 8.05645e-13 
Ar 4.34729 16.6292 2.79461 3.5445e-17 2.70907e-17 8.51122e-17 
Ar 24.5294 21.9143 5.33277 -2.97578e-17 6.81165e-15 2.67951e-15 
Ar 0.482811 12.9981 6.86876 -3.90398e-12 1.91746e-12 2.38733e-12 
Ar 28.7149 13.9311 31.9893 1.76536e-11 -1.98506e-11 -1.13385e-12 
Ar 29.3932 9.60452 11.092 2.10613e-15 -5.47052e-16 5.01203e-16 
Ar 20.2593 1.19375 15.1758 -3.55789e-16 -1.86858e-14 1.89385e-14 
Ar 13.4072 27.4973 5.60397 -5.05182e-17 -8.43494e-17 1.09453e-15 
Ar 6.53034 7.5215 35.3257 7.82808e-16 3.49452e-16 4.69141e-16 
Ar 9.17472 22.2219 3.37316 -1.32295e-14 -5.05062e-15 1.08866e-14 
