32
comment
Ar 3.00357e+09 6.49028e+09 9.64658e+08 -3.00357e+13 -6.49028e+13 -9.64658e+12 
Ar 68.8033 4.08982 10.1046 137716 100359 48713.2 
Ar 0.414094 10.1138 3.7552 -6114.51 4255.65 4927.18 
Ar 2.25268e+10 4.86771e+10 7.23493e+09 1.50178e+13 3.24514e+13 4.82329e+12 
Ar 3.39339 1.01212 5.27088 87.6315 -198.652 -3.17037 
Ar 16233.9 13502.2 29257.4 7.83501e+06 6.53278e+06 1.4036e+07 
Ar 2.98207 0.232393 10.4382 42.9299 29.0418 310.016 
Ar 3.79141e+09 1.70352 4.63791 1.8957e+12 -1.86224e+12 -1.99234e+12 
Ar 4.20157 20.9221 6.31611 -5430.13 -138864 17313.4 
Ar 0.787803 7.75706 4.68946 109.424 -28.6429 282.54 
Ar 105018 81513.1 157757 6.18797e+07 4.80516e+07 9.29019e+07 
Ar 10.2406 1863.67 8.71167 -163366 1.65295e+06 -987030 
Ar 3.32927 5.66928 5.50877 164.39 -235.321 111.917 
Ar 8.65056e+09 6.02644e+11 7.96583e+10 2.7033e+12 1.88326e+14 2.48932e+13 
Ar 27861.2 2.46396e+06 88938.6 -2.78589e+08 9.1268e+08 -8.89312e+08 
Ar 3499.04 2741.44 5354.69 -3.49011e+07 -2.73545e+07 -5.34746e+07 
Ar 7.02936 2.08252 0.726611 -237.695 -12.6329 337.579 
Ar 194.045 78.7828 134.837 -1.87143e+06 -710767 141342 
Ar 7.92148 0.878746 2.28702 -2.12023 118.985 -54.9903 
Ar 5.74478 9.80073 9.98083 59.1599 -90.9614 -68.0029 
Ar 1904.66 8.27552 7406.79 604836 -7.64311e+06 2.05301e+06 
Ar 7.47799 0.605825 7.84049 309.258 -246.593 24.8418 
Ar 0.489188 9.06519 9.08971 379.429 -183.873 142.72 
Ar 4.42288 14137.6 5.20822 -302528 3.82522e+06 -1.02734e+06 
Ar 8.37389 9.03651 1.26009 58.6276 137.438 155.4 
Ar 4.14739 8.27776 4.70432 -140.205 38.0669 259.091 
Ar 7.74824 6.46405 2.90541 -14.9302 150.376 40.4053 
Ar 4.71043 6.50767 9.96436 600.726 498.166 243.808 
Ar 0.184095 8.28409 7.19308 1028.74 323.422 972.893 
Ar 180.41 7.80602 3.56488 153638 5881.5 54281.5 
Ar 7.56414 4.01975 1.45755 17624.5 91352 -25731.4 
Ar 3.99465 6.82797 6.63254 -4679.56 3909.08 529.17 
