32
comment
Ar 0.261909 0.652189 7.0242 -81.6583 -68.2004 242.214 
Ar 2.23831 7.70427 1.6631 77.183 174.975 -33.3414 
Ar -4.34001 4.39072 7.94041 -240.345 151.404 183.117 
Ar 3.07823 -9.38127 -7.80311 106.146 -323.492 -269.073 
Ar 5.44576 -3.02075 5.42598 97.095 -194.854 5.7234 
Ar 1.56855 1.47901 7.92253 54.0879 -39.6891 1.12158 
Ar 3.87577 0.77645 16.943 42.9577 26.7741 312.174 
Ar 0.404026 8.55324 3.31989 13.9319 294.939 -66.9005 
Ar -2.56998 4.30312 5.85191 -179.31 -123.685 201.79 
Ar 2.59702 7.60936 9.63528 89.5525 -9.67731 241.561 
Ar 0.438834 3.90388 -0.693327 -75.5575 -46.7628 -114.597 
Ar -1.03648 3.79341 0.654641 -35.7408 -50.5719 22.5738 
Ar 4.87811 0.272935 5.81096 77.521 -262.657 18.9987 
Ar 3.26726 4.93473 13.1133 112.664 -101.906 180.115 
Ar 1.00103 8.40137 5.24 -56.1715 108.323 -91.3793 
Ar 8.24157 2.62051 -1.91554 284.192 -91.017 -247.432 
Ar 5.48246 0.315432 1.17311 -83.0186 -79.8127 40.4521 
Ar -3.81509 4.2429 -6.94137 -312.934 55.6172 -330.047 
Ar 8.05368 2.9922 1.47403 5.64408 103.179 -39.8612 
Ar 6.96314 -2.57405 -1.91977 58.729 -88.7604 -66.1989 
Ar -3.98284 2.06435 3.88434 -409.408 -19.5053 -47.4366 
Ar 12.9933 -4.5277 7.8077 266.667 -246.817 -2.83797 
Ar 18.9534 -5.24193 12.1479 381.498 -180.756 146.824 
Ar 10.6004 6.11004 6.47735 184.152 210.691 41.9777 
Ar 9.60501 11.9985 4.41342 59.1381 141.672 152.187 
Ar 1.40688 9.40211 9.85828 -132.866 52.1416 249.251 
Ar 7.38246 9.47651 3.55883 -17.5013 145.397 32.0288 
Ar 1.0747 8.51387 -2.99656 -144.321 112.202 -103.33 
Ar 12.5903 7.1291 6.44343 162.08 -26.2379 40.8078 
Ar 10.1431 6.56029 8.79259 168.384 -45.852 31.1239 
Ar 10.9637 3.61323 6.95537 105.988 -56.7853 -32.2285 
Ar 4.6996 7.72371 9.90404 -19.3241 84.9556 160.139 
