32
comment
Ar 1.32066 4.3005 4.87557 -3.00357e+13 -6.49028e+13 -9.64658e+12 
Ar 59.0484 5.54206 6.0106 137716 100359 48713.2 
Ar 2.24844 8.83686 2.27719 -6114.4 4256.72 4926.24 
Ar 1.80214e+10 3.89417e+10 5.78795e+09 1.50178e+13 3.24514e+13 4.82329e+12 
Ar 3.36712 1.07174 5.27182 87.5461 -198.808 -3.14105 
Ar 13914.9 11573.9 25078.2 7.83501e+06 6.53278e+06 1.4036e+07 
Ar 2.96919 0.223681 10.3452 42.9224 29.0369 310.028 
Ar 3.2227e+09 1.86224e+08 1.99234e+08 1.8957e+12 -1.86224e+12 -1.99234e+12 
Ar 5.83068 7.0357 1.12204 -5430.62 -138865 17313.5 
Ar 0.754992 7.76585 4.60471 109.118 -29.8439 282.858 
Ar 86485.5 67129.2 129918 6.18797e+07 4.80516e+07 9.29019e+07 
Ar 16.616 1399.34 100.511 -163366 1.65295e+06 -987030 
Ar 3.28707 5.74713 5.48362 119.506 -278.816 60.2607 
Ar 7.83957e+09 5.46146e+11 7.21903e+10 2.7033e+12 1.88326e+14 2.48932e+13 
Ar 2.32292 2.19018e+06 7.36551 -2.78589e+08 9.1268e+08 -8.89312e+08 
Ar 8.92974 5.98743 7.23266 -3.49011e+07 -2.73545e+07 -5.34746e+07 
Ar 7.10106 2.08617 0.626016 -239.84 -10.9623 333.667 
Ar 6.90178 7.70613 123.994 -1.87143e+06 -710767 141342 
Ar 7.92179 0.843503 2.30294 -0.129875 116.172 -51.3628 
Ar 5.72703 9.82801 10.0012 59.2096 -90.8479 -67.9822 
Ar 1754.77 766.555 6822.45 604836 -7.64311e+06 2.05301e+06 
Ar 7.38521 0.679804 7.83304 309.277 -246.6 24.8524 
Ar 0.375235 9.12004 9.04615 379.894 -182.579 145.758 
Ar 36.35 13021.6 108.046 -302528 3.82522e+06 -1.02734e+06 
Ar 8.35629 8.99525 1.21349 58.6829 137.649 155.26 
Ar 4.18941 8.26612 4.62678 -139.916 39.4249 257.984 
Ar 7.75265 6.4189 2.89332 -14.575 150.472 40.2466 
Ar 4.53021 6.35824 9.89119 601.83 497.194 244.588 
Ar 10.3956 8.18733 6.90181 1028.1 322.385 970.521 
Ar 165.879 6.04157 8.32043 153638 5881.5 54281.5 
Ar 3.02193 7.54493 9.10696 10171.6 97642.9 -25032.3 
Ar 5.0195 5.96359 6.50118 -81.0367 93.8743 134.065 
