32
comment
Ar -0.309699 0.174786 8.7197 -81.6583 -68.2004 242.214 
Ar 2.77859 8.92909 1.42971 77.183 174.975 -33.3414 
Ar -6.02243 5.45055 9.22223 -240.345 151.404 183.117 
Ar 3.82125 -11.6457 -9.68662 106.146 -323.492 -269.073 
Ar 6.12542 -4.38473 5.46604 97.095 -194.854 5.7234 
Ar 1.94716 1.20119 7.93038 54.0879 -39.6891 1.12158 
Ar 4.17648 0.963869 19.1283 42.9577 26.7741 312.174 
Ar 0.50155 10.6178 2.85158 13.9319 294.939 -66.9005 
Ar -3.82515 3.43733 7.26444 -179.31 -123.685 201.79 
Ar 3.22389 7.54162 11.3262 89.5525 -9.67731 241.561 
Ar -0.0900684 3.57654 -1.49551 -75.5575 -46.7628 -114.597 
Ar -1.28667 3.43941 0.812658 -35.7408 -50.5719 22.5738 
Ar 5.42076 -1.56567 5.94395 77.521 -262.657 18.9987 
Ar 4.05591 4.22139 14.3741 112.664 -101.906 180.115 
Ar 0.607826 9.15963 4.60034 -56.1715 108.323 -91.3793 
Ar 10.2309 1.98339 -3.64757 284.192 -91.017 -247.432 
Ar 4.90133 -0.243257 1.45628 -83.0186 -79.8127 40.4521 
Ar -6.00563 4.63222 -9.25171 -312.934 55.6172 -330.047 
Ar 8.09319 3.71446 1.195 5.64408 103.179 -39.8612 
Ar 7.37424 -3.19537 -2.38316 58.729 -88.7604 -66.1989 
Ar -6.8487 1.92781 3.55228 -409.408 -19.5053 -47.4366 
Ar 14.86 -6.25542 7.78783 266.667 -246.817 -2.83797 
Ar 21.6239 -6.50723 13.1757 381.498 -180.756 146.824 
Ar 11.8895 7.58487 6.7712 184.152 210.691 41.9777 
Ar 10.019 12.9902 5.47873 59.1381 141.672 152.187 
Ar 0.476817 9.7671 11.603 -132.866 52.1416 249.251 
Ar 7.25995 10.4943 3.78304 -17.5013 145.397 32.0288 
Ar 0.0644609 9.29929 -3.71986 -144.321 112.202 -103.33 
Ar 13.7249 6.94543 6.72908 162.08 -26.2379 40.8078 
Ar 11.3218 6.23933 9.01046 168.384 -45.852 31.1239 
Ar 11.7056 3.21573 6.72978 105.988 -56.7853 -32.2285 
Ar 4.56433 8.3184 11.025 -19.3241 84.9556 160.139 
