32
comment
Ar -2.75945 -1.87123 15.9861 -81.6583 -68.2004 242.214 
Ar 5.09408 14.1783 0.42947 77.183 174.975 -33.3414 
Ar -13.2328 9.99268 14.7158 -240.345 151.404 183.117 
Ar 7.00563 -21.3505 -17.7588 106.146 -323.492 -269.073 
Ar 9.03827 -10.2303 5.63774 97.095 -194.854 5.7234 
Ar 3.5698 0.0105164 7.96402 54.0879 -39.6891 1.12158 
Ar 5.46521 1.76709 28.4935 42.9577 26.7741 312.174 
Ar 0.919509 19.466 0.84457 13.9319 294.939 -66.9005 
Ar -9.20444 -0.273237 13.3181 -179.31 -123.685 201.79 
Ar 5.91047 7.2513 18.573 89.5525 -9.67731 241.561 
Ar -2.35679 2.17365 -4.93343 -75.5575 -46.7628 -114.597 
Ar -2.35889 1.92225 1.48987 -35.7408 -50.5719 22.5738 
Ar 7.74639 -9.44539 6.51391 77.521 -262.657 18.9987 
Ar 7.43584 1.16422 19.7776 112.664 -101.906 180.115 
Ar -1.07732 12.4093 1.85896 -56.1715 108.323 -91.3793 
Ar 18.7567 -0.747124 -11.0705 284.192 -91.017 -247.432 
Ar 2.41077 -2.63764 2.66984 -83.0186 -79.8127 40.4521 
Ar -15.3937 6.30074 -19.1531 -312.934 55.6172 -330.047 
Ar 8.26251 6.80984 -0.000836472 5.64408 103.179 -39.8612 
Ar 9.13611 -5.85818 -4.36913 58.729 -88.7604 -66.1989 
Ar -19.131 1.34265 2.12919 -409.408 -19.5053 -47.4366 
Ar 22.86 -13.6599 7.70269 266.667 -246.817 -2.83797 
Ar 33.0689 -11.9299 17.5804 381.498 -180.756 146.824 
Ar 17.414 13.9056 8.03053 184.152 210.691 41.9777 
Ar 11.7931 17.2404 10.0443 59.1381 141.672 152.187 
Ar -3.50917 11.3313 19.0806 -132.866 52.1416 249.251 
Ar 6.73491 14.8562 4.7439 -17.5013 145.397 32.0288 
Ar -4.26516 12.6654 -6.81975 -144.321 112.202 -103.33 
Ar 18.5873 6.1583 7.95332 162.08 -26.2379 40.8078 
Ar 16.3734 4.86377 9.94418 168.384 -45.852 31.1239 
Ar 14.8852 1.51217 5.76292 105.988 -56.7853 -32.2285 
Ar 3.98461 10.8671 15.8292 -19.3241 84.9556 160.139 
