32
comment
Ar 2.05839 2.1526 1.6955 -81.6583 -68.2004 242.214 
Ar 0.540281 3.85482 2.39661 77.183 174.975 -33.3414 
Ar 0.947583 1.05983 3.91182 -240.345 151.404 183.117 
Ar 0.743021 -2.26444 -1.88351 106.146 -323.492 -269.073 
Ar 3.30967 1.26603 5.30006 97.095 -194.854 5.7234 
Ar 0.378615 2.35218 7.89785 54.0879 -39.6891 1.12158 
Ar 2.9307 0.187419 10.0752 42.9577 26.7741 312.174 
Ar 0.0975236 2.06458 4.7917 13.9319 294.939 -66.9005 
Ar 1.37483 7.0242 1.41253 -179.31 -123.685 201.79 
Ar 0.626868 7.82226 4.32093 89.5525 -9.67731 241.561 
Ar 2.1011 4.93266 1.82782 -75.5575 -46.7628 -114.597 
Ar -0.250186 4.906 0.158017 -35.7408 -50.5719 22.5738 
Ar 3.17265 6.0514 5.39299 77.521 -262.657 18.9987 
Ar 0.78865 7.17666 9.1508 112.664 -101.906 180.115 
Ar 2.2368 6.01826 7.25034 -56.1715 108.323 -91.3793 
Ar 1.98934 4.62288 3.52797 284.192 -91.017 -247.432 
Ar 7.30887 2.07131 0.283165 -83.0186 -79.8127 40.4521 
Ar 3.06946 3.01932 0.319668 -312.934 55.6172 -330.047 
Ar 7.92951 0.722256 2.35097 5.64408 103.179 -39.8612 
Ar 5.6711 -0.621322 -0.463392 58.729 -88.7604 -66.1989 
Ar 5.02414 2.49346 4.92794 -409.408 -19.5053 -47.4366 
Ar 7.12667 0.902279 7.87013 266.667 -246.817 -2.83797 
Ar 10.5605 -1.26529 8.91777 381.498 -180.756 146.824 
Ar 6.54906 1.47484 5.55384 184.152 210.691 41.9777 
Ar 8.30397 8.88171 1.06531 59.1381 141.672 152.187 
Ar 4.32994 8.25499 4.37476 -132.866 52.1416 249.251 
Ar 7.76749 6.27778 2.8542 -17.5013 145.397 32.0288 
Ar 4.24976 6.04542 -0.723307 -144.321 112.202 -103.33 
Ar 9.02456 7.70633 5.54565 162.08 -26.2379 40.8078 
Ar 6.43869 7.56904 8.10787 168.384 -45.852 31.1239 
Ar 8.63192 4.8625 7.6644 105.988 -56.7853 -32.2285 
Ar 5.12473 5.85469 6.38097 -19.3241 84.9556 160.139 
