32
comment
Ar 2.48331 2.5074 0.437756 -81.001 -67.9194 244.695 
Ar 0.140426 2.9451 2.57061 79.0907 175.215 -32.5734 
Ar 2.19725 0.274059 2.96031 -240.615 153.355 184.054 
Ar 0.191151 10.002 10.0891 106.232 -324.235 -269.726 
Ar 2.80468 2.27904 5.26999 96.8846 -195.289 5.20163 
Ar 0.0982402 2.55849 7.89112 55.0603 -39.8223 0.100893 
Ar 2.70735 0.0490624 8.45114 42.985 27.7129 311.359 
Ar 0.0262075 0.531918 5.13937 15.4008 296.16 -67.2674 
Ar 2.30723 7.66688 0.364267 -179.348 -124.298 203.063 
Ar 0.162235 7.87175 3.06514 90.8018 -10.7226 241.943 
Ar 2.49378 5.17566 2.42425 -75.9862 -47.0597 -113.984 
Ar 10.4621 5.16898 0.0409733 -36.5457 -50.5588 22.9369 
Ar 2.76968 7.41577 5.29408 77.7565 -264.472 18.8343 
Ar 0.203492 7.70642 8.21412 113.499 -101.877 180.218 
Ar 2.52908 5.45529 7.72445 -56.0009 108.875 -92.6717 
Ar 0.512944 5.09618 4.8142 285.896 -90.9711 -248.201 
Ar 7.74042 2.48654 0.0737287 -83.1859 -79.6552 41.4933 
Ar 4.69608 2.73016 2.03613 -314.201 55.6619 -330.124 
Ar 7.89955 0.186633 2.55849 4.96875 104.216 -39.6152 
Ar 5.36592 10.3777 10.4136 58.9573 -89.1595 -66.7623 
Ar 7.1515 2.5948 5.17464 -411.536 -20.0804 -47.1562 
Ar 5.73989 2.18604 7.88358 266.635 -246.584 -4.60393 
Ar 8.57615 10.2303 8.15419 380.901 -181.318 146.702 
Ar 5.59151 0.38098 5.33545 184.533 213.206 41.9799 
Ar 7.9964 8.14438 0.274504 59.0975 140.971 152.805 
Ar 5.02065 7.98289 3.07914 -133.178 51.0308 249.912 
Ar 7.85795 5.52184 2.68771 -18.0466 145.617 32.1135 
Ar 5.0002 5.46211 10.3537 -144.344 112.43 -104.546 
Ar 8.18087 7.84213 5.33369 161.118 -26.9559 41.0824 
Ar 5.56327 7.80672 7.94572 168.56 -46.7575 30.8161 
Ar 8.07962 5.15788 7.83133 104.699 -56.6482 -32.969 
Ar 5.22508 5.41312 5.5484 -19.5762 85.3243 160.367 
