32
comment
Ar 9.87845 10.1849 6.71704e-07 -9.91578e-09 1.31603e-07 1.63343e-13 
Ar 1.57135e-07 10.1812 10.1812 2.00914e-13 1.29892e-07 1.29892e-07 
Ar 10.1791 4.23017e-07 10.1791 -8.15217e-09 3.65957e-13 -8.15222e-09 
Ar 11.284 28.8636 23.0564 -0.00228396 -0.140369 -0.0969476 
Ar 10.1835 10.1835 22.3232 1.30986e-07 1.30985e-07 -2.13308e-13 
Ar 4.22305e-08 10.1812 21.4803 1.80288e-12 -7.207e-09 -9.42981e-10 
Ar 12.3766 5.54106e-08 21.4823 -2.91017e-15 1.11797e-14 -4.58711e-15 
Ar -2.26106 -8.38826 2.93967 -1.66537e+09 -1.66541e+09 -1197.99 
Ar 10.1792 21.4823 4.0176e-07 -8.13993e-09 -9.9321e-12 1.55332e-13 
Ar 1.55302e-07 21.4823 10.1792 -3.90035e-13 -1.16072e-11 -8.1382e-09 
Ar 10.1837 22.3231 10.1837 1.31047e-07 -7.30024e-10 1.30378e-07 
Ar 13.2176 22.3232 5.54106e-08 -6.409e-15 -1.38746e-14 3.14507e-14 
Ar 10.4399 21.4803 22.3232 1.12261e-07 -9.2118e-10 -5.07735e-12 
Ar 0.0532647 3.26689 2.25426 8.13685e-10 0.00157404 0.00157402 
Ar 10.4419 22.3212 21.4803 -1.08679e-05 -0.0045727 -0.00458368 
Ar 4.74151e-07 22.3232 22.3232 -1.20676e-11 -6.70999e-10 -6.7086e-10 
Ar 21.4823 10.1792 35.4418 -1.14504e-12 -8.14028e-09 -3.24306e-13 
Ar 22.3232 10.1835 10.1835 -1.3381e-09 1.30316e-07 1.30315e-07 
Ar 21.4823 1.88698e-07 12.3766 -1.82597e-15 4.99232e-14 4.78369e-14 
Ar 22.3232 10.7231 12.9206 -5.8638e-14 -8.17885e-09 -2.35077e-11 
Ar 21.4823 10.4378 22.3232 4.16117e-12 1.11325e-07 -1.07984e-12 
Ar 22.3232 10.4399 21.4803 -0.00457271 -1.08558e-05 -0.0045837 
Ar 21.4823 11.2808 21.4803 -1.7599e-13 1.12262e-07 -9.33322e-10 
Ar 22.3232 3.60931e-07 22.3232 -6.67669e-10 -1.1355e-11 -6.67609e-10 
Ar 20.3775 33.3873 35.3975 0.00157399 1.42746e-05 -1.04457e-11 
Ar 22.3232 21.4823 10.4378 -8.85413e-10 2.99955e-12 1.10442e-07 
Ar 21.4823 22.3232 10.4378 -0.00465049 -0.0046505 1.21642e-07 
Ar 22.3232 22.3233 11.2789 -2.4625e-14 2.55863e-11 1.11368e-07 
Ar 21.4823 21.4823 22.3232 -3.37782e-12 -1.17341e-11 -1.2397e-12 
Ar 22.3232 21.4823 21.4823 -0.00465043 -1.19861e-10 -0.00465043 
Ar 21.4823 22.3232 21.4823 -0.00465046 -0.00930089 -0.00465042 
Ar 22.3232 22.3232 22.551 -0.00432411 -0.00432412 -0.00278532 
