32
comment
Ar 0.506884 0.85679 6.29756 -81.6583 -68.2004 242.214 
Ar 2.00676 7.17934 1.76312 77.183 174.975 -33.3414 
Ar -3.61898 3.93651 7.39105 -240.345 151.404 183.117 
Ar 2.75979 -8.41079 -6.99589 106.146 -323.492 -269.073 
Ar 5.15447 -2.43619 5.40881 97.095 -194.854 5.7234 
Ar 1.40629 1.59808 7.91916 54.0879 -39.6891 1.12158 
Ar 3.7469 0.696128 16.0065 42.9577 26.7741 312.174 
Ar 0.362231 7.66842 3.52059 13.9319 294.939 -66.9005 
Ar -2.03205 4.67418 5.24654 -179.31 -123.685 201.79 
Ar 2.32837 7.63839 8.91059 89.5525 -9.67731 241.561 
Ar 0.665506 4.04417 -0.349534 -75.5575 -46.7628 -114.597 
Ar -0.92926 3.94513 0.58692 -35.7408 -50.5719 22.5738 
Ar 4.64555 1.06091 5.75397 77.521 -262.657 18.9987 
Ar 2.92927 5.24045 12.573 112.664 -101.906 180.115 
Ar 1.16954 8.0764 5.51414 -56.1715 108.323 -91.3793 
Ar 7.38899 2.89356 -1.17324 284.192 -91.017 -247.432 
Ar 5.73152 0.55487 1.05175 -83.0186 -79.8127 40.4521 
Ar -2.87629 4.07605 -5.95123 -312.934 55.6172 -330.047 
Ar 8.03675 2.68266 1.59361 5.64408 103.179 -39.8612 
Ar 6.78695 -2.30777 -1.72117 58.729 -88.7604 -66.1989 
Ar -2.75462 2.12286 4.02665 -409.408 -19.5053 -47.4366 
Ar 12.1933 -3.78725 7.81621 266.667 -246.817 -2.83797 
Ar 17.8089 -4.69966 11.7074 381.498 -180.756 146.824 
Ar 10.048 5.47796 6.35142 184.152 210.691 41.9777 
Ar 9.42759 11.5735 3.95686 59.1381 141.672 152.187 
Ar 1.80548 9.24568 9.11053 -132.866 52.1416 249.251 
Ar 7.43497 9.04032 3.46275 -17.5013 145.397 32.0288 
Ar 1.50767 8.17726 -2.68657 -144.321 112.202 -103.33 
Ar 12.1041 7.20781 6.321 162.08 -26.2379 40.8078 
Ar 9.63799 6.69785 8.69922 168.384 -45.852 31.1239 
Ar 10.6457 3.78358 7.05206 105.988 -56.7853 -32.2285 
Ar 4.75757 7.46885 9.42362 -19.3241 84.9556 160.139 
