32
comment
Ar 1.56844 1.7434 3.14878 -81.6583 -68.2004 242.214 
Ar 1.00338 4.90467 2.19656 77.183 174.975 -33.3414 
Ar -0.494488 1.96826 5.01053 -240.345 151.404 183.117 
Ar 1.3799 -4.2054 -3.49795 106.146 -323.492 -269.073 
Ar 3.89224 0.0969039 5.3344 97.095 -194.854 5.7234 
Ar 0.703143 2.11404 7.90458 54.0879 -39.6891 1.12158 
Ar 3.18845 0.348064 11.9483 42.9577 26.7741 312.174 
Ar 0.181115 3.83421 4.39029 13.9319 294.939 -66.9005 
Ar 0.298973 6.28209 2.62327 -179.31 -123.685 201.79 
Ar 1.16418 7.76419 5.7703 89.5525 -9.67731 241.561 
Ar 1.64775 4.65208 1.14023 -75.5575 -46.7628 -114.597 
Ar -0.46463 4.60257 0.29346 -35.7408 -50.5719 22.5738 
Ar 3.63777 4.47545 5.50698 77.521 -262.657 18.9987 
Ar 1.46464 6.56523 10.2315 112.664 -101.906 180.115 
Ar 1.89977 6.6682 6.70207 -56.1715 108.323 -91.3793 
Ar 3.6945 4.07678 2.04338 284.192 -91.017 -247.432 
Ar 6.81076 1.59243 0.525877 -83.0186 -79.8127 40.4521 
Ar 1.19185 3.35302 -1.66062 -312.934 55.6172 -330.047 
Ar 7.96337 1.34133 2.1118 5.64408 103.179 -39.8612 
Ar 6.02348 -1.15388 -0.860585 58.729 -88.7604 -66.1989 
Ar 2.56769 2.37643 4.64332 -409.408 -19.5053 -47.4366 
Ar 8.72667 -0.578625 7.85311 266.667 -246.817 -2.83797 
Ar 12.8495 -2.34983 9.79871 381.498 -180.756 146.824 
Ar 7.65398 2.73898 5.80571 184.152 210.691 41.9777 
Ar 8.6588 9.73174 1.97843 59.1381 141.672 152.187 
Ar 3.53274 8.56784 5.87027 -132.866 52.1416 249.251 
Ar 7.66248 7.15016 3.04637 -17.5013 145.397 32.0288 
Ar 3.38383 6.71863 -1.34328 -144.321 112.202 -103.33 
Ar 9.99704 7.54891 5.7905 162.08 -26.2379 40.8078 
Ar 7.449 7.29392 8.29461 168.384 -45.852 31.1239 
Ar 9.26784 4.52179 7.47103 105.988 -56.7853 -32.2285 
Ar 5.00879 6.36442 7.34181 -19.3241 84.9556 160.139 
