32
comment
Ar 3.9416 3.96803 5.79376e-08 -0.00397898 0.0528073 1.03313e-09 
Ar 1.35415e-08 3.96771 3.96771 5.01388e-10 0.0521202 0.0521203 
Ar 3.96754 3.64828e-08 3.96754 -0.00327138 5.12595e-10 -0.00327138 
Ar 35.6229 34.0552 1.99254 -916.463 -56324.3 -38901.2 
Ar 3.96792 3.96792 5.01498 0.0525587 0.0525589 1.28637e-09 
Ar 3.63161e-09 3.96771 1.8527 7.27242e-10 -0.00289189 -0.000378079 
Ar 7.24665 4.77125e-09 1.85288 1.30444e-09 3.03659e-10 -1.94508e-09 
Ar 14.5073 14.5073 5.01498 -1.05088e-07 -1.05088e-07 2.33946e-15 
Ar 3.96754 1.85288 3.46495e-08 -0.00326632 -3.60475e-06 8.34883e-10 
Ar 1.33928e-08 1.85288 3.96754 8.85358e-10 -3.63798e-06 -0.00326634 
Ar 3.96793 5.01497 3.96793 0.0525832 -0.000292909 0.0523148 
Ar 10.4088 5.01498 4.77125e-09 2.91111e-12 1.06684e-10 1.07167e-10 
Ar 3.99003 1.8527 5.01498 0.0450465 -0.000375197 -1.62702e-06 
Ar 0.00459415 10.8017 10.7144 0.000326298 631.599 631.593 
Ar 3.9902 5.01481 1.8527 0.045421 -0.00037609 -0.000375198 
Ar 4.08927e-08 5.01498 5.01498 -6.18642e-06 -0.000269391 -0.000269391 
Ar 1.85288 3.96754 13.5769 -1.9839e-08 -0.00326636 2.01221e-11 
Ar 5.01498 3.96792 3.96792 -0.000536923 0.0522906 0.0522908 
Ar 1.85288 1.62667e-08 7.24665 -6.43986e-10 4.38551e-11 -5.42903e-11 
Ar 5.01498 7.10403 10.3831 1.83129e-10 -0.00328158 -9.45889e-06 
Ar 1.85288 3.98985 5.01498 2.13573e-06 0.0446702 -1.74449e-06 
Ar 5.01498 3.99003 1.8527 -0.000356713 0.0446914 -0.000375631 
Ar 1.85288 7.15213 1.8527 -1.73528e-08 0.0450464 -0.000374463 
Ar 5.01498 3.11315e-08 5.01498 -0.00026881 -6.19102e-06 -0.000268807 
Ar 12.2775 23.9197 13.5731 631.581 5.72784 -3.80799e-06 
Ar 5.01498 1.85288 3.98985 -0.000355594 2.18116e-06 0.0443162 
Ar 1.85288 5.01498 3.98985 2.13896e-06 -0.000355222 0.0443167 
Ar 5.01498 5.01499 7.15196 -9.29756e-08 1.01917e-05 0.0446882 
Ar 1.85288 1.85288 5.01498 -3.0172e-07 -3.14957e-06 -1.61201e-06 
Ar 5.01498 1.85288 1.85288 -1.61158e-06 -3.14511e-06 -3.05744e-07 
Ar 1.85288 5.01498 1.85288 -2.97757e-07 1.46324e-06 -3.17898e-06 
Ar 5.01498 5.01498 5.03463 -0.000503364 -0.0005032 0.0417338 
