32
comment
Ar 34.4178 19.3763 12.3211 4.6963e-15 -1.14773e-15 1.84509e-14 
Ar 1.74226 11.4582 17.2562 1.25201e-14 1.53749e-14 -1.12194e-13 
Ar 3.16966 22.0869 16.6962 -1.58272e-13 1.20385e-12 6.3725e-14 
Ar 25.5779 3.17471 1.8983 7.60915e-15 4.59748e-15 -4.13447e-15 
Ar 3.03474 6.36731 13.0916 -1.69925e-12 -4.89965e-12 1.72471e-12 
Ar 22.3416 28.4348 7.76704 3.0053e-15 6.77279e-16 2.95446e-15 
Ar 34.0407 2.29391 20.6968 -3.08392e-15 -3.85812e-14 1.54282e-13 
Ar 25.9802 11.3707 10.8876 3.04767e-06 -5.88765e-06 1.84879e-06 
Ar 27.1336 6.71134 14.5047 -1.29772e-11 -5.229e-11 -3.80469e-11 
Ar 30.74 1.2276 32.993 -1.86159e-13 9.33266e-14 -3.75599e-13 
Ar 12.1809 11.8381 6.24833 -2.60077e-14 5.18159e-15 4.17425e-14 
Ar 2.38183 12.7378 2.29391 2.53537e-15 1.61384e-15 2.08548e-14 
Ar 18.5143 22.8672 24.4019 -3.23006e-16 2.21555e-15 2.06118e-15 
Ar 20.3927 16.5532 6.65661 2.188e-12 -2.20113e-12 -6.95797e-13 
Ar 2.65167 12.1069 20.3976 -1.56023e-13 -1.24717e-14 -2.37376e-13 
Ar 0.325653 32.7879 13.6378 -2.24859e-12 -5.87686e-12 3.16672e-12 
Ar 20.7605 29.108 18.9824 -3.29819e-12 -3.33519e-12 6.05724e-12 
Ar 27.4948 11.7392 28.7256 -4.84795e-12 2.10659e-12 6.62479e-12 
Ar 4.15876 7.48722 23.8311 -2.30573e-14 4.98547e-14 9.18431e-14 
Ar 14.3403 7.58953 6.16473 -8.5824e-09 1.68209e-09 -1.0276e-08 
Ar 25.6733 9.46406 5.27046 2.06444e-13 1.00299e-13 1.37496e-14 
Ar 0.4658 32.247 7.02605 9.66624e-14 6.2867e-14 8.34881e-14 
Ar 8.07017 17.2733 16.6679 7.38693e-14 -1.67125e-13 1.40016e-13 
Ar 22.5999 6.60149 30.4278 1.57273e-14 -1.63087e-14 5.41311e-15 
Ar 8.4134 34.8749 11.3491 2.02109e-13 -8.69362e-14 1.19908e-13 
Ar 12.0994 3.03289 1.06292 1.02794e-13 -1.95705e-13 -3.04051e-13 
Ar 25.8429 11.6359 10.8043 -3.04768e-06 5.8876e-06 -1.84875e-06 
Ar 12.318 7.14362 8.5519 -8.70778e-09 1.77521e-09 -1.01975e-08 
Ar 0.36391 19.6124 29.1765 -9.02093e-13 1.11909e-12 1.23515e-12 
Ar 24.6989 35.5099 21.6897 -2.39948e-12 -1.0547e-11 -3.9812e-12 
Ar 8.62774 32.2396 26.606 3.41564e-15 4.88033e-15 2.14642e-15 
Ar 32.1666 13.8545 35.0989 -1.80143e-17 1.27495e-16 -2.51424e-17 
