32
comment
Ar 1.32066 4.3005 4.87557 -3.00357e+13 -6.49028e+13 -9.64658e+12 
Ar 124.081 6.38045 8.757 137716 100359 48713.2 
Ar 5.91296 9.77248 7.74218 -18306.5 -8818.25 -2395 
Ar 4.80571e+10 1.03844e+11 1.54345e+10 1.50178e+13 3.24514e+13 4.82329e+12 
Ar 3.54242 0.674579 5.26543 1.69863e+06 3.77941e+06 -60533.2 
Ar 29374.6 24429.1 52939.7 7.83501e+06 6.53278e+06 1.4036e+07 
Ar 3.30083 0.482447 0.582141 315.73 252.718 461.943 
Ar 7.0141e+09 1.86224e+08 1.99234e+08 1.8957e+12 -1.86224e+12 -1.99234e+12 
Ar 1.45174 5075.61 5533.69 -3.82213e+06 4.32901e+06 4.71319e+06 
Ar 2167.7 7.47893 4.57235 1.91072e+06 -2.23655e+06 -2.35067e+06 
Ar 210034 163022 315511 6.18797e+07 4.80516e+07 9.29019e+07 
Ar 16.616 4494.84 100.511 -163366 1.65295e+06 -987030 
Ar 3.61633 5.29314 5.71955 168.322 -220.417 125.578 
Ar 1.32462e+10 9.22799e+11 1.21977e+11 2.7033e+12 1.88326e+14 2.48932e+13 
Ar 2.32292 4.01533e+06 7.36551 -2.78589e+08 9.1268e+08 -8.89312e+08 
Ar 8.92974 5.98743 7.23266 -3.49011e+07 -2.73545e+07 -5.34746e+07 
Ar 6.66685 2.02134 1.34776 -147.794 -84.8931 419.607 
Ar 6.90178 7.70613 196.279 -1.87143e+06 -710767 141342 
Ar 7.87408 1.12452 2.14768 -108.099 211.015 -144.56 
Ar 5.84492 9.64419 9.86518 58.6906 -94.8972 -69.8591 
Ar 2754.04 766.555 10718.1 604836 -7.64311e+06 2.05301e+06 
Ar 8.0102 0.194887 7.87853 333.165 -233.858 25.2494 
Ar 1.13221 8.64502 9.03588 378.763 -268.606 -91.5354 
Ar 36.35 20461.7 108.046 -302528 3.82522e+06 -1.02734e+06 
Ar 8.47324 9.26905 1.52497 58.2418 136.081 156.238 
Ar 3.84631 1.35081 5.2546 -1.69863e+06 -3.7657e+06 54694.1 
Ar 7.72318 6.72057 2.97369 -14.497 151.528 39.9325 
Ar 5.73093 7.35678 10.3767 600.527 502.377 241.798 
Ar 6.53769 3.44615 0.294338 13636 4580.06 -6157.37 
Ar 262.754 7.28456 1.16341 153638 5881.5 54281.5 
Ar 4.6815e+10 5.63584e+12 4.41611e+11 -4.6815e+14 4.33526e+15 -4.41611e+15 
Ar 6.78645e+06 2.3315e+06 7.14211 5.65548e+09 1.94301e+09 -8.84184e+08 
