32
comment
Ar 21.7846 18.8563 26.0657 2.70325e-14 1.1877e-14 6.05806e-15 
Ar 2.3337 6.27902 7.23993 2.11576e-14 2.05984e-14 2.5669e-15 
Ar 7.75059 5.75671 33.5253 -7.15903e-12 4.49086e-13 1.02456e-12 
Ar 9.26109 13.1388 2.33647 -3.13552e-15 2.54972e-15 -4.35595e-15 
Ar 33.2788 11.5886 9.10722 -4.43717e-16 9.34554e-16 1.62178e-15 
Ar 7.08915 27.7978 19.7027 7.63093e-13 -1.93342e-12 -1.85336e-12 
Ar 13.6374 19.2424 32.6853 -1.12513e-12 2.96231e-14 6.71634e-13 
Ar 4.49049 28.3602 6.62108 -8.45722e-14 4.32634e-13 2.60208e-13 
Ar 8.5736 34.1278 12.0479 4.49166e-12 -3.30538e-10 1.74454e-10 
Ar 16.1338 5.22345 3.85432 -3.36526e-13 2.10404e-13 -2.63827e-13 
Ar 26.4471 6.01768 31.1766 -9.83623e-15 1.71318e-14 2.24701e-15 
Ar 19.7349 5.43378 19.2424 -2.54409e-12 2.20318e-12 1.6399e-12 
Ar 26.3471 0.0658582 15.84 -2.86129e-12 -2.24878e-12 1.12136e-12 
Ar 8.94069 15.0576 9.43679 -1.30042e-12 8.35492e-12 -2.94189e-12 
Ar 14.4701 29.1746 5.89165 5.13339e-16 5.5553e-14 3.18448e-14 
Ar 14.2415 12.3615 27.1031 4.7755e-13 -3.62027e-13 2.01203e-14 
Ar 2.20028 28.2065 25.9384 -8.21903e-12 -3.41826e-12 7.14383e-12 
Ar 4.44125 19.1607 27.3854 1.29983e-12 3.24251e-12 -3.74599e-14 
Ar 13.086 30.0593 26.7963 -7.61598e-16 -2.75807e-15 -6.97249e-15 
Ar 9.15787 29.0899 33.484 5.10983e-12 -5.93431e-13 -1.5205e-11 
Ar 8.52296 1.99759 13.994 6.41248e-17 8.73416e-17 2.04836e-16 
Ar 10.0523 22.5082 12.2944 -2.69743e-12 -4.00917e-12 3.27356e-12 
Ar 34.9918 21.1885 15.5976 -7.15247e-15 -6.08026e-15 1.69637e-15 
Ar 17.8762 8.09652 12.4811 1.81352e-15 -1.69499e-14 -3.99503e-15 
Ar 5.40259 1.66529 6.1399 -4.44891e-11 -9.26349e-11 3.6998e-11 
Ar 35.3557 6.27119 34.7012 5.63647e-16 1.56171e-16 -1.09426e-16 
Ar 15.1403 33.8233 4.25298 2.96369e-11 1.97622e-10 7.14068e-11 
Ar 4.00083 2.45464 34.6988 9.99075e-15 -5.73296e-15 1.94182e-14 
Ar 15.0212 0.276386 17.4239 -2.13352e-14 -1.48379e-14 -2.23782e-14 
Ar 25.9814 27.7535 6.05375 7.48773e-14 3.31577e-14 -3.98679e-14 
Ar 2.91165 26.1397 0.444554 -7.992e-12 9.57375e-12 2.86591e-11 
Ar 20.6499 7.73295 5.4103 -1.16174e-10 5.97014e-11 -2.50899e-11 
