32
comment
Ar 2.54023 2.55502 0.266986 -81.5062 -68.1097 243.349 
Ar 0.0854036 2.82251 2.59354 78.1681 175.06 -32.9168 
Ar 2.3656 0.167057 2.83165 -240.418 152.414 183.572 
Ar 0.1168 10.2287 10.2777 106.202 -323.765 -269.327 
Ar 2.7368 2.41562 5.26622 97.0445 -194.983 5.5363 
Ar 0.0598275 2.58633 7.8909 54.6881 -39.7282 0.513499 
Ar 2.67726 0.0297819 8.23309 42.9747 27.3678 311.643 
Ar 0.0157002 0.324795 5.18636 14.6695 295.629 -67.0227 
Ar 2.43276 7.75378 0.222332 -179.314 -123.999 202.486 
Ar 0.0988727 7.87908 2.89583 90.2486 -10.2225 241.787 
Ar 2.54685 5.20852 2.50414 -75.678 -46.8634 -114.238 
Ar 10.4876 5.20437 0.0249652 -36.2298 -50.5683 22.8007 
Ar 2.71531 7.60059 5.28087 77.608 -263.615 18.9199 
Ar 0.124176 7.77781 8.08805 113.13 -102.033 180.028 
Ar 2.56829 5.37922 7.78911 -56.0417 108.51 -92.0829 
Ar 0.313097 5.15988 4.98773 285.124 -91.0158 -247.685 
Ar 7.79862 2.5423 0.0448333 -83.1122 -79.6683 41.0702 
Ar 4.91565 2.6912 2.26709 -313.294 55.6478 -329.851 
Ar 7.89598 0.113831 2.58624 5.23134 103.794 -39.6937 
Ar 5.32468 10.44 10.4603 58.8707 -88.9697 -66.5278 
Ar 7.43915 2.6086 5.20778 -410.413 -19.4892 -47.4525 
Ar 5.55327 2.35864 7.88646 266.582 -246.595 -3.68497 
Ar 8.30944 10.3571 8.05147 381.126 -181.098 146.765 
Ar 5.46251 0.232295 5.30611 184.129 211.784 41.8911 
Ar 7.95503 8.0456 0.167621 59.1054 141.248 152.573 
Ar 5.1138 7.947 2.90433 -132.981 51.4918 249.571 
Ar 7.87053 5.41996 2.66525 -17.8729 145.473 32.0708 
Ar 5.10124 5.38346 10.4267 -144.334 112.292 -104.032 
Ar 8.06796 7.8609 5.30498 161.486 -26.6695 40.9712 
Ar 5.44529 7.8393 7.92412 168.508 -46.3511 30.9184 
Ar 8.00615 5.19756 7.85431 105.2 -56.7289 -32.6734 
Ar 5.23871 5.35349 5.43619 -19.4048 85.0764 160.236 
