32
comment
Ar 2.38503 2.4254 0.726642 -81.6583 -68.2004 242.214 
Ar 0.231549 3.15492 2.52998 77.183 174.975 -33.3414 
Ar 1.90896 0.454213 3.17935 -240.345 151.404 183.117 
Ar 0.318438 -0.970476 -0.807218 106.146 -323.492 -269.073 
Ar 2.92129 2.04544 5.27717 97.095 -194.854 5.7234 
Ar 0.162264 2.51093 7.89336 54.0879 -39.6891 1.12158 
Ar 2.75887 0.0803224 8.82652 42.9577 26.7741 312.174 
Ar 0.0417958 0.884818 5.0593 13.9319 294.939 -66.9005 
Ar 2.09207 7.51894 0.60537 -179.31 -123.685 201.79 
Ar 0.268658 7.86097 3.35468 89.5525 -9.67731 241.561 
Ar 2.40333 5.11971 2.28621 -75.5575 -46.7628 -114.597 
Ar -0.107222 5.10828 0.0677215 -35.7408 -50.5719 22.5738 
Ar 2.86256 7.10203 5.317 77.521 -262.657 18.9987 
Ar 0.337993 7.58428 8.43034 112.664 -101.906 180.115 
Ar 2.46149 5.58497 7.61586 -56.1715 108.323 -91.3793 
Ar 0.852576 4.98695 4.5177 284.192 -91.017 -247.432 
Ar 7.64094 2.39056 0.121356 -83.0186 -79.8127 40.4521 
Ar 4.3212 2.79685 1.63986 -312.934 55.6172 -330.047 
Ar 7.90693 0.309538 2.51042 5.64408 103.179 -39.8612 
Ar 5.43619 -0.266281 -0.198597 58.729 -88.7604 -66.1989 
Ar 6.66177 2.57148 5.11769 -409.408 -19.5053 -47.4366 
Ar 6.06 1.88955 7.88149 266.667 -246.817 -2.83797 
Ar 9.03449 -0.542269 8.33047 381.498 -180.756 146.824 
Ar 5.81246 0.632073 5.38593 184.152 210.691 41.9777 
Ar 8.06741 8.31502 0.456561 59.1381 141.672 152.187 
Ar 4.8614 8.04642 3.37775 -132.866 52.1416 249.251 
Ar 7.8375 5.69619 2.72609 -17.5013 145.397 32.0288 
Ar 4.82704 5.59661 -0.309989 -144.321 112.202 -103.33 
Ar 8.37624 7.81129 5.38242 162.08 -26.2379 40.8078 
Ar 5.76515 7.75244 7.98337 168.384 -45.852 31.1239 
Ar 8.20796 5.08964 7.79331 105.988 -56.7853 -32.2285 
Ar 5.20203 5.51487 5.74042 -19.3241 84.9556 160.139 
