32
comment
Ar 1.32066 4.3005 4.87557 -3.00357e+13 -6.49028e+13 -9.64658e+12 
Ar 72.0549 3.60574 4.45588 137716 100359 48713.2 
Ar 10.7174 0.0192977 4.24792 -6114.49 4255.47 4927.25 
Ar 2.40285e+10 5.19222e+10 7.71726e+09 1.50178e+13 3.24514e+13 4.82329e+12 
Ar 3.40215 0.992252 5.27056 87.6281 -198.632 -3.16926 
Ar 17006.9 14144.9 30650.5 7.83501e+06 6.53278e+06 1.4036e+07 
Ar 2.98636 0.235298 10.4692 42.9322 29.0434 310.012 
Ar 3.98098e+09 1.86224e+08 1.99234e+08 1.8957e+12 -1.86224e+12 -1.99234e+12 
Ar 3.65855 7.0357 8.04745 -5473.57 -138805 16880.4 
Ar 0.798747 7.75419 4.71773 109.477 -28.6461 282.857 
Ar 111195 86307.7 167037 6.18797e+07 4.80516e+07 9.29019e+07 
Ar 16.616 2018.44 100.511 -163366 1.65295e+06 -987030 
Ar 3.3462 5.64663 5.52081 169.347 -224.348 122.038 
Ar 8.92089e+09 6.21477e+11 8.21476e+10 2.7033e+12 1.88326e+14 2.48932e+13 
Ar 2.32292 2.55521e+06 7.36551 -2.78589e+08 9.1268e+08 -8.89312e+08 
Ar 8.92974 5.98743 7.23266 -3.49011e+07 -2.73545e+07 -5.34746e+07 
Ar 7.00566 2.0813 0.760475 -236.559 -12.7881 339.424 
Ar 6.90178 7.70613 138.451 -1.87143e+06 -710767 141342 
Ar 7.92122 0.890705 2.28145 -3.00617 120.194 -56.4872 
Ar 5.7507 9.79164 9.97402 59.1351 -91.0182 -68.016 
Ar 1954.62 766.555 7601.57 604836 -7.64311e+06 2.05301e+06 
Ar 7.50891 0.581166 7.84298 309.256 -246.589 24.8381 
Ar 0.52711 9.04674 9.10385 378.889 -185.501 138.733 
Ar 36.35 14509.6 108.046 -302528 3.82522e+06 -1.02734e+06 
Ar 8.37975 9.05025 1.27563 58.6086 137.366 155.447 
Ar 4.13336 8.28154 4.73026 -140.444 37.4854 259.828 
Ar 7.74675 6.47908 2.90945 -14.9268 150.372 40.3289 
Ar 4.77047 6.5575 9.98868 600.163 498.477 242.758 
Ar 0.286999 8.31648 7.29048 1029.44 324.896 976.485 
Ar 185.254 8.39417 8.99303 153638 5881.5 54281.5 
Ar 9.32655 2.63486 11.6356 17624.2 91351 -25731.8 
Ar 3.5227 7.22018 6.69937 -4676 3860.83 1099.71 
