32
comment
Ar 8.63332 25.0103 22.4473 1.28205e-14 -4.04256e-15 2.1064e-15 
Ar 27.057 1.15787 12.2987 -9.50643e-15 1.88371e-13 -1.46727e-13 
Ar 18.2193 30.9229 22.786 1.07949e-12 1.49773e-13 -4.07234e-13 
Ar 35.7321 30.3622 27.0891 -2.99525e-13 -7.261e-14 -3.35077e-13 
Ar 19.928 12.3894 33.9481 6.29051e-15 -1.92472e-16 1.41801e-15 
Ar 10.5506 6.7091 34.8235 -1.77931e-12 8.55599e-13 -7.0674e-13 
Ar 0.322484 29.4862 13.0472 -3.75387e-13 9.74437e-13 -1.24222e-12 
Ar 16.2422 13.2294 5.12378 3.76449e-13 -5.64342e-13 -7.5748e-13 
Ar 27.7613 29.7706 17.7149 6.97231e-14 3.59924e-14 1.94168e-14 
Ar 29.2655 24.7402 8.86652 -5.02032e-11 -1.68039e-11 4.00744e-11 
Ar 26.8692 33.9485 10.0619 -4.53939e-14 9.26185e-14 1.11132e-13 
Ar 35.1964 27.1787 29.4862 1.86239e-13 4.96325e-14 -1.45369e-14 
Ar 25.7105 0.763562 25.8601 -7.8932e-14 1.35337e-13 2.34051e-13 
Ar 32.0173 16.7882 1.94855 4.22475e-11 -2.07692e-11 1.91778e-11 
Ar 9.97738 22.6721 32.4874 1.39851e-12 1.35263e-12 1.28475e-12 
Ar 7.32706 21.3502 34.4755 1.04566e-09 -5.11449e-10 -7.83597e-10 
Ar 25.5101 11.4474 20.971 6.62038e-15 1.18599e-13 3.74586e-14 
Ar 15.6714 28.5389 1.9272 -5.82799e-13 -7.17524e-13 4.76113e-14 
Ar 29.7498 32.9289 30.9183 7.55593e-14 -1.96048e-14 -2.6884e-14 
Ar 34.5353 21.6895 22.3071 -1.19642e-13 4.62015e-15 3.79936e-15 
Ar 27.1742 23.1601 4.45684 3.6759e-13 2.04467e-13 4.29671e-13 
Ar 9.08537 17.0226 20.5724 2.1382e-16 6.41626e-16 8.92805e-17 
Ar 3.9673 1.72224 23.0498 -3.3697e-13 1.68753e-13 -1.09315e-13 
Ar 13.647 22.2301 22.7367 -8.45213e-14 -2.36716e-14 4.57565e-15 
Ar 26.8171 19.3074 35.3656 1.13104e-12 -1.22365e-12 6.82196e-13 
Ar 8.18656 1.06714 0.598231 4.88343e-13 5.97455e-12 -4.91752e-13 
Ar 17.7478 26.2411 13.4886 -9.55814e-13 3.72297e-13 -2.05146e-12 
Ar 10.5651 28.4592 0.570928 -1.3833e-10 -3.05983e-11 -5.46806e-11 
Ar 16.3662 3.20443 8.40326 2.62242e-13 4.42207e-13 9.01057e-13 
Ar 21.4705 6.19566 34.3667 -2.38692e-13 3.5189e-13 1.70834e-13 
Ar 33.7578 23.3058 5.15417 -8.88636e-11 -3.17974e-12 3.26636e-11 
Ar 9.98473 18.0148 26.9066 5.68235e-16 -1.45609e-16 -6.84091e-16 
