32
comment
Ar -3.00442 -2.07583 16.7128 -81.6583 -68.2004 242.214 
Ar 5.32563 14.7033 0.329446 77.183 174.975 -33.3414 
Ar -13.9538 10.4469 15.2651 -240.345 151.404 183.117 
Ar 7.32407 -22.3209 -18.566 106.146 -323.492 -269.073 
Ar 9.32956 -10.8149 5.65491 97.095 -194.854 5.7234 
Ar 3.73206 -0.108551 7.96739 54.0879 -39.6891 1.12158 
Ar 5.59408 1.84742 29.43 42.9577 26.7741 312.174 
Ar 0.961304 20.3508 0.643868 13.9319 294.939 -66.9005 
Ar -9.74237 -0.644293 13.9235 -179.31 -123.685 201.79 
Ar 6.17913 7.22227 19.2977 89.5525 -9.67731 241.561 
Ar -2.58346 2.03336 -5.27723 -75.5575 -46.7628 -114.597 
Ar -2.46611 1.77054 1.55759 -35.7408 -50.5719 22.5738 
Ar 7.97895 -10.2334 6.57091 77.521 -262.657 18.9987 
Ar 7.77384 0.858502 20.3179 112.664 -101.906 180.115 
Ar -1.24583 12.7343 1.58483 -56.1715 108.323 -91.3793 
Ar 19.6092 -1.02017 -11.8128 284.192 -91.017 -247.432 
Ar 2.16172 -2.87708 2.7912 -83.0186 -79.8127 40.4521 
Ar -16.3325 6.46759 -20.1433 -312.934 55.6172 -330.047 
Ar 8.27944 7.11938 -0.12042 5.64408 103.179 -39.8612 
Ar 9.3123 -6.12446 -4.56772 58.729 -88.7604 -66.1989 
Ar -20.3592 1.28414 1.98688 -409.408 -19.5053 -47.4366 
Ar 23.66 -14.4004 7.69418 266.667 -246.817 -2.83797 
Ar 34.2134 -12.4722 18.0209 381.498 -180.756 146.824 
Ar 17.9665 14.5377 8.15646 184.152 210.691 41.9777 
Ar 11.9705 17.6654 10.5009 59.1381 141.672 152.187 
Ar -3.90777 11.4878 19.8283 -132.866 52.1416 249.251 
Ar 6.68241 15.2924 4.83999 -17.5013 145.397 32.0288 
Ar -4.69812 13.002 -7.12974 -144.321 112.202 -103.33 
Ar 19.0735 6.07958 8.07574 162.08 -26.2379 40.8078 
Ar 16.8785 4.72621 10.0375 168.384 -45.852 31.1239 
Ar 15.2032 1.34181 5.66624 105.988 -56.7853 -32.2285 
Ar 3.92664 11.1219 16.3096 -19.3241 84.9556 160.139 
