32
comment
Ar 3.44765 10.3334 3.9376 3.66097e-11 -4.1025e-11 5.21748e-11 
Ar 9.33484 33.2714 27.3704 9.08265e-15 -8.83393e-15 -7.87754e-15 
Ar 31.8658 31.653 3.70653 -7.32565e-15 -5.52294e-14 5.93985e-14 
Ar 1.42944 32.3758 25.1068 5.40816e-12 5.99821e-12 -5.47458e-11 
Ar 6.18223 5.42283 22.9122 -9.15063e-14 -4.76543e-14 -1.14694e-13 
Ar 7.5419 34.9795 6.27289 1.70767e-09 1.16715e-09 -1.37335e-10 
Ar 19.458 26.1335 27.7402 3.57515e-13 -4.76902e-13 7.77049e-14 
Ar 6.56686 11.7033 10.4246 -1.18286e-14 3.40531e-14 -2.65975e-14 
Ar 30.0455 8.25698 7.34302 -1.70829e-09 -1.16709e-09 -1.37005e-10 
Ar 24.7068 24.5378 19.0598 1.37347e-13 2.64601e-12 -2.81859e-13 
Ar 8.45111 5.16505 34.3237 2.41558e-12 2.50709e-12 -3.39195e-12 
Ar 28.8095 13.9996 26.1335 -4.08957e-13 3.79127e-13 5.37843e-14 
Ar 7.32936 21.7483 17.8626 -3.20113e-13 -2.46977e-14 -3.94356e-13 
Ar 22.9276 2.02093 34.6559 -3.54313e-13 4.7259e-13 -4.71925e-13 
Ar 35.588 21.1948 27.3603 -2.06573e-12 -5.61389e-13 1.01859e-12 
Ar 19.71 8.14875 32.3495 -2.98627e-14 -4.9579e-14 -1.30749e-13 
Ar 19.5859 17.6745 6.85863 -2.38796e-14 2.29274e-14 2.32665e-14 
Ar 5.26716 25.2092 16.141 -3.24483e-14 3.13512e-14 1.98622e-14 
Ar 24.7609 15.0067 18.2213 4.58972e-16 1.09458e-16 5.58813e-16 
Ar 16.2953 14.7126 18.7959 5.72051e-12 -1.03227e-12 -7.91839e-13 
Ar 17.9947 34.6535 9.36802 -9.44129e-14 1.52712e-13 3.64686e-14 
Ar 0.523592 27.2782 32.9806 6.6386e-15 -1.25071e-14 8.06006e-15 
Ar 7.88189 5.77771 30.9769 -1.62284e-12 -2.41924e-12 -8.00998e-13 
Ar 14.8632 18.739 16.046 -4.78781e-11 -1.46491e-10 1.0238e-10 
Ar 9.30049 8.8605 29.1359 -1.15154e-12 1.837e-12 2.34571e-12 
Ar 28.7862 7.05482 7.17392 -1.15301e-13 4.91336e-14 5.45796e-14 
Ar 14.4818 4.05447 11.5214 -3.9126e-14 -2.17977e-14 -1.7906e-14 
Ar 12.8584 33.8969 29.7374 2.50437e-16 1.11203e-15 -2.26184e-16 
Ar 2.74865 32.9317 19.149 8.5731e-12 -1.30454e-11 5.68497e-11 
Ar 10.1415 9.8838 9.67299 1.31278e-13 1.87291e-16 -7.76739e-15 
Ar 5.30555 12.4322 1.29406 1.77964e-14 7.79262e-14 4.62477e-14 
Ar 12.3784 32.8516 24.3442 3.08909e-07 1.2243e-08 8.90507e-08 
