32
comment
Ar 3.56366 16.1472 21.3764 9.38141e-14 -1.24974e-13 -1.06049e-13 
Ar 17.2255 21.0251 5.69033 -1.22663e-12 -9.12408e-12 -1.31118e-11 
Ar 22.4499 35.0101 19.0393 1.32919e-12 -1.33917e-12 2.50344e-12 
Ar 9.96036 6.79238 29.6446 -2.23178e-14 1.88027e-13 1.02049e-13 
Ar 35.0863 22.7835 5.57217 8.25319e-11 -3.42071e-11 -3.42178e-11 
Ar 20.0903 21.7805 17.4247 -8.37226e-13 -7.81748e-13 -1.14881e-12 
Ar 1.53772 3.82431 30.9466 -1.02003e-11 4.84353e-12 -4.73938e-12 
Ar 26.5605 2.9231 30.1731 3.52742e-14 8.08779e-15 5.55585e-15 
Ar 11.0466 15.0409 32.4241 -8.8755e-14 -2.06775e-13 -1.37518e-13 
Ar 4.24501 30.0703 26.5182 -2.21939e-13 4.64637e-13 -4.01725e-13 
Ar 29.4891 3.57809 8.74897 -1.29773e-10 1.27081e-10 1.70433e-10 
Ar 19.6484 34.4737 5.24694 1.65688e-11 8.54957e-12 1.20696e-11 
Ar 8.07146 6.19908 27.5257 5.5109e-12 -3.18351e-13 4.3713e-12 
Ar 13.5055 18.1894 4.41584 -3.3903e-15 3.23126e-15 1.45712e-15 
Ar 17.8 16.8962 11.8379 5.5358e-16 -7.01175e-14 1.24059e-13 
Ar 14.4075 1.19085 1.36519 1.78979e-11 8.71777e-12 1.32935e-11 
Ar 22.884 15.8033 31.8028 2.70977e-16 -1.7083e-16 2.30936e-15 
Ar 2.54431 12.9709 20.4253 3.09848e-15 6.47179e-16 9.17442e-15 
Ar 12.8177 0.607053 10.8363 -2.56507e-14 -2.07415e-14 5.33971e-14 
Ar 5.8342 6.62432 33.0372 -1.26125e-10 -5.08864e-10 6.13522e-11 
Ar 25.5414 9.61161 24.4773 1.56767e-15 4.0448e-15 7.5352e-16 
Ar 31.0765 12.6236 5.14062 -4.04138e-13 -6.8141e-13 -1.57445e-12 
Ar 4.16443 20.7536 3.5397 -8.5683e-11 3.31901e-11 3.47119e-11 
Ar 6.36731 15.7847 2.84473 -1.81775e-14 -1.12297e-14 -4.64572e-15 
Ar 16.6124 26.0904 22.6064 6.69271e-12 7.67777e-12 -9.46962e-12 
Ar 15.2526 25.4289 3.71476 7.60054e-15 1.12206e-14 -1.28045e-13 
Ar 20.9162 17.9344 31.2213 -2.46123e-08 2.66511e-08 -7.27458e-09 
Ar 30.251 2.43044 10.0856 1.49216e-15 -4.49514e-16 2.71128e-16 
Ar 1.52952 6.64712 22.3546 7.25539e-14 2.65508e-13 7.59103e-14 
Ar 14.7693 26.5857 24.8028 2.98256e-08 -8.01506e-09 -3.55424e-08 
Ar 4.4057 9.51881 6.18912 -9.399e-14 7.84494e-14 3.12271e-14 
Ar 27.4237 1.56301 11.4565 -6.99918e-09 2.05774e-09 3.28647e-09 
