32
comment
Ar 3.00357e+09 6.49028e+09 9.64658e+08 -3.00357e+13 -6.49028e+13 -9.64658e+12 
Ar 107.823 8.80085 5.4404 137716 100359 48713.2 
Ar 2.77384 3.39057 8.93866 -18281.8 -8811.6 -2390.09 
Ar 4.05482e+10 8.76187e+10 1.30229e+10 1.50178e+13 3.24514e+13 4.82329e+12 
Ar 3.49858 0.773816 5.26706 87.7004 -198.517 -3.20044 
Ar 25509.7 21215.3 45974.3 7.83501e+06 6.53278e+06 1.4036e+07 
Ar 3.14303 0.356364 0.351342 315.615 251.695 461.235 
Ar 6.06625e+09 1.70352 4.63791 1.8957e+12 -1.86224e+12 -1.99234e+12 
Ar 383.665 2963.7 3229.7 -3.82213e+06 4.32901e+06 4.71319e+06 
Ar 1264.94 231.134 239.64 1.91072e+06 -2.23655e+06 -2.35067e+06 
Ar 179147 139049 269113 6.18797e+07 4.80516e+07 9.29019e+07 
Ar 10.2406 3720.97 8.71167 -163366 1.65295e+06 -987030 
Ar 3.53206 5.40341 5.6569 168.548 -221.166 123.759 
Ar 1.18945e+10 8.28636e+11 1.0953e+11 2.7033e+12 1.88326e+14 2.48932e+13 
Ar 27861.2 3.55905e+06 88938.6 -2.78589e+08 9.1268e+08 -8.89312e+08 
Ar 3499.04 2741.44 5354.69 -3.49011e+07 -2.73545e+07 -5.34746e+07 
Ar 6.75722 2.05418 1.14925 -204.901 -45.1444 375.969 
Ar 194.045 78.7828 178.208 -1.87143e+06 -710767 141342 
Ar 7.90556 1.03642 2.20399 -34.7273 153.009 -90.3433 
Ar 5.81558 9.69095 9.8992 58.7815 -92.4791 -67.9494 
Ar 2504.22 8.27552 9744.16 604836 -7.64311e+06 2.05301e+06 
Ar 7.84957 0.313624 7.86717 309.736 -240.923 20.2942 
Ar 0.942849 8.77932 9.08164 378.679 -268.585 -91.4989 
Ar 4.42288 18601.6 5.20822 -302528 3.82522e+06 -1.02734e+06 
Ar 8.44409 9.2009 1.44691 58.3668 136.514 155.985 
Ar 3.89238 4.91165 8.17238 -91.8731 13919.1 -5833.97 
Ar 7.73047 6.64491 2.95368 -14.6447 151.145 40.085 
Ar 5.43072 7.10637 10.2556 600.336 499.754 242.418 
Ar 10.2447 1.14866 3.37727 13623.7 4596.92 -6166.15 
Ar 238.536 4.34382 5.58267 153638 5881.5 54281.5 
Ar 4.09381 3.46821e+12 3.91614 -4.6815e+14 4.33526e+15 -4.41611e+15 
Ar 3.95877e+06 1.36004e+06 88425.5 5.65548e+09 1.94301e+09 -8.84184e+08 
