32
comment
Ar 2.54838 2.56183 0.242659 -81.5375 -68.1248 243.209 
Ar 0.0775923 2.805 2.59683 78.0591 175.046 -32.9608 
Ar 2.38964 0.151821 2.8133 -240.401 152.302 183.519 
Ar 0.10618 10.2611 10.3047 106.198 -323.723 -269.289 
Ar 2.72709 2.43512 5.26567 97.0578 -194.955 5.56825 
Ar 0.0543614 2.59031 7.89085 54.6341 -39.7189 0.570379 
Ar 2.67297 0.0270477 8.20192 42.973 27.3159 311.687 
Ar 0.0142374 0.295236 5.19307 14.5865 295.559 -67.0008 
Ar 2.45069 7.76618 0.202087 -179.311 -123.965 202.414 
Ar 0.0898514 7.88009 2.87166 90.177 -10.1621 241.764 
Ar 2.55442 5.21321 2.51556 -75.6516 -46.8461 -114.271 
Ar 10.4912 5.20943 0.0226861 -36.1828 -50.5693 22.7814 
Ar 2.70755 7.62694 5.27897 77.5944 -263.511 18.9314 
Ar 0.112866 7.78801 8.07005 113.082 -102.035 180.02 
Ar 2.57389 5.36837 7.79831 -56.0496 108.476 -92.0104 
Ar 0.284589 5.16898 5.0125 285.027 -91.0192 -247.638 
Ar 7.80694 2.55027 0.0407292 -83.1028 -79.6754 41.0121 
Ar 4.94697 2.68563 2.30008 -313.225 55.645 -329.848 
Ar 7.89545 0.103455 2.59021 5.26828 103.736 -39.7077 
Ar 5.31879 10.4489 10.4669 58.8578 -88.9447 -66.4942 
Ar 7.48018 2.61055 5.21252 -410.295 -19.4634 -47.4698 
Ar 5.52661 2.3833 7.88682 266.581 -246.605 -3.58438 
Ar 8.27133 10.3753 8.03679 381.159 -181.065 146.772 
Ar 5.4441 0.211123 5.30192 184.109 211.648 41.8886 
Ar 7.94912 8.03148 0.152366 59.1068 141.287 152.539 
Ar 5.1271 7.94185 2.87937 -132.962 51.5535 249.531 
Ar 7.87232 5.40541 2.66204 -17.8445 145.458 32.0655 
Ar 5.11567 5.37223 10.4371 -144.332 112.278 -103.96 
Ar 8.05181 7.86357 5.30088 161.539 -26.6295 40.9555 
Ar 5.42844 7.84393 7.92103 168.498 -46.2992 30.9347 
Ar 7.99563 5.20323 7.85757 105.272 -56.7372 -32.6314 
Ar 5.24065 5.34498 5.42017 -19.3911 85.0528 160.22 
