32
comment
Ar 2.37411 2.41344 0.784661 -70.0151 -65.09 253.304 
Ar 0.253157 3.19093 2.52568 82.4053 176.205 -31.4699 
Ar 1.85977 0.490662 3.21932 -241.738 156.415 186.449 
Ar 0.339937 9.54608 9.71001 106.341 -328.413 -272.634 
Ar 2.93982 2.00485 5.27638 96.0252 -196.552 3.68607 
Ar 0.175818 2.50254 7.89062 55.7505 -40.1289 -0.838183 
Ar 2.76753 0.0882814 8.88669 42.9813 28.2864 310.871 
Ar 0.049514 0.947299 5.04437 18.3773 297.173 -68.8303 
Ar 2.05609 7.49218 0.649617 -179.424 -125.436 204.717 
Ar 0.29029 7.8558 3.40404 92.1992 -12.158 242.158 
Ar 2.3864 5.10918 2.26528 -77.7997 -48.0997 -112.856 
Ar 10.4105 5.09821 0.0732759 -37.1104 -50.5309 23.2087 
Ar 2.879 7.0438 5.32046 78.5706 -267.193 19.0128 
Ar 0.363053 7.56528 8.4676 114.514 -98.365 182.749 
Ar 2.45073 5.6087 7.5935 -55.8877 110.533 -94.6586 
Ar 0.914621 4.96888 4.4651 288.117 -90.9507 -251.117 
Ar 7.62385 2.37492 0.13248 -83.3287 -79.8605 42.4795 
Ar 4.25089 2.80761 1.5716 -327.062 53.9965 -335.638 
Ar 7.90612 0.333193 2.50304 4.40604 105.193 -39.6479 
Ar 5.44857 10.2525 10.3198 59.1087 -89.6271 -67.2428 
Ar 6.57146 2.56118 5.11008 -419.707 -34.7356 -43.9009 
Ar 6.11326 1.84068 7.87499 266.685 -246.841 -8.09782 
Ar 9.10912 9.97618 8.35945 380.49 -181.699 146.516 
Ar 5.85276 0.686516 5.39423 191.368 230.372 41.2358 
Ar 8.07912 8.34133 0.488754 59.0776 140.379 153.27 
Ar 4.83369 8.05354 3.42974 -134.031 49.8143 251.071 
Ar 7.83252 5.72601 2.73275 -18.2635 146.094 32.2259 
Ar 4.79812 5.61981 10.2065 -144.336 112.904 -105.707 
Ar 8.40594 7.80397 5.39136 160.41 -27.5664 41.2906 
Ar 5.79925 7.74055 7.98875 168.504 -47.8261 30.648 
Ar 8.22551 5.07875 7.78477 103.728 -56.3582 -33.5383 
Ar 5.19703 5.53324 5.77312 -20.7436 86.4512 160.652 
