32
comment
Ar 3.00357e+09 6.49028e+09 9.64658e+08 -3.00357e+13 -6.49028e+13 -9.64658e+12 
Ar 101.32 9.76901 6.21776 137716 100359 48713.2 
Ar 5.21389 3.84707 8.68425 -6116.34 4249.06 4932.42 
Ar 3.75446e+10 8.11285e+10 1.20582e+10 1.50178e+13 3.24514e+13 4.82329e+12 
Ar 3.48104 0.813522 5.2677 87.6856 -198.541 -3.2037 
Ar 23963.7 19929.8 43188.2 7.83501e+06 6.53278e+06 1.4036e+07 
Ar 3.07991 0.306026 0.259096 315.59 251.682 461.221 
Ar 5.68711e+09 8.81648 5.88209 1.8957e+12 -1.86224e+12 -1.99234e+12 
Ar 391.282 2118.94 2308.1 -3.82213e+06 4.32901e+06 4.71319e+06 
Ar 903.834 226.696 241.015 1.91072e+06 -2.23655e+06 -2.35067e+06 
Ar 166792 129459 250554 6.18797e+07 4.80516e+07 9.29019e+07 
Ar 0.27937 3411.42 1.80833 -163366 1.65295e+06 -987030 
Ar 3.49835 5.44764 5.63218 168.557 -221.077 123.586 
Ar 1.13539e+10 7.90971e+11 1.04551e+11 2.7033e+12 1.88326e+14 2.48932e+13 
Ar 27867.1 3.37653e+06 88934.4 -2.78589e+08 9.1268e+08 -8.89312e+08 
Ar 3491.7 2739.99 5350.74 -3.49011e+07 -2.73545e+07 -5.34746e+07 
Ar 6.79946 2.06207 1.07525 -216.349 -34.6574 364.852 
Ar 190.762 73.8905 170.979 -1.87143e+06 -710767 141342 
Ar 7.9114 1.00692 2.22116 -24.4288 142.752 -82.179 
Ar 5.80382 9.70939 9.9128 58.8699 -91.974 -68.0089 
Ar 2404.29 2.24448 9354.6 604836 -7.64311e+06 2.05301e+06 
Ar 7.78762 0.36181 7.86311 309.745 -240.93 20.3425 
Ar 0.867115 8.83304 9.09994 378.664 -268.578 -91.4987 
Ar 6.09712 17857.6 5.31178 -302528 3.82522e+06 -1.02734e+06 
Ar 8.43241 9.17358 1.41573 58.4121 136.679 155.886 
Ar 3.94963 2.71549 9.79771 -484.893 8033.49 -10415.7 
Ar 7.73341 6.61469 2.94566 -14.7256 151.005 40.1017 
Ar 5.31066 7.00646 10.2071 600.313 499.388 242.56 
Ar 7.51977 0.229325 4.61021 13625.4 4596.32 -6163.1 
Ar 228.848 3.16752 5.24637 153638 5881.5 54281.5 
Ar 6.42619 2.60116e+12 6.60388 -4.6815e+14 4.33526e+15 -4.41611e+15 
Ar 2.82769e+06 971462 88421.8 5.65548e+09 1.94301e+09 -8.84184e+08 
