32
comment
Ar 25.9088 29.5247 3.0342 6.79445e-14 -2.45627e-13 -1.25229e-13 
Ar 31.6041 13.8998 29.471 -2.31156e-14 3.58212e-14 8.03603e-14 
Ar 9.34901 28.686 20.2117 9.1577e-13 2.18359e-13 -8.06053e-14 
Ar 34.0226 0.0804178 31.2642 2.34602e-13 8.99311e-13 2.37605e-13 
Ar 2.79896 22.1087 20.1203 -5.70232e-14 1.31422e-13 8.50017e-14 
Ar 29.5998 18.3268 9.09799 -4.79747e-13 -4.47704e-13 3.44683e-13 
Ar 8.85615 15.4824 15.0412 -9.23403e-13 1.22995e-12 -9.3435e-13 
Ar 15.175 4.28497 30.5845 4.2484e-14 3.41927e-13 -7.50598e-13 
Ar 9.95604 20.8661 0.367414 1.86681e-14 -3.00123e-14 -1.63869e-13 
Ar 21.8187 18.545 11.3557 -1.42842e-13 7.97605e-14 -5.87635e-14 
Ar 3.03064 31.8599 16.8574 1.87906e-12 1.90185e-12 -6.01303e-13 
Ar 19.8491 9.59138 15.4824 -4.04873e-13 3.91185e-13 -2.57575e-13 
Ar 20.2577 30.888 19.132 1.05616e-13 3.21276e-14 7.20431e-14 
Ar 7.60308 18.9332 10.3447 3.42971e-11 7.61775e-12 -5.76852e-11 
Ar 5.87883 10.8267 21.5567 2.4085e-15 1.20677e-13 -2.70072e-14 
Ar 11.4356 24.9601 17.0446 9.57907e-15 -2.30314e-14 7.02446e-14 
Ar 4.52282 22.6847 21.5208 -9.18351e-07 3.06879e-07 -7.46072e-07 
Ar 1.60383 9.1986 32.2876 9.56705e-09 2.14935e-08 5.97336e-08 
Ar 1.01271 2.91175 0.60366 1.17285e-12 1.17298e-11 7.82863e-12 
Ar 7.44976 11.6196 11.5835 -3.59915e-11 -1.13464e-10 -8.68508e-11 
Ar 1.55769 2.05446 7.22002 5.44344e-15 2.60242e-15 -4.70399e-15 
Ar 19.433 23.6716 29.2119 -2.16946e-14 3.29392e-15 -3.08842e-14 
Ar 24.334 7.52406 15.8465 7.11581e-15 -3.70335e-15 3.48544e-15 
Ar 17.2716 12.5019 23.6255 1.77784e-14 -3.94438e-15 6.52032e-15 
Ar 2.02785 10.1521 34.9371 -9.55785e-09 2.14753e-08 5.97205e-08 
Ar 27.1582 2.79892 7.11344 -9.87403e-15 1.39327e-14 1.56894e-14 
Ar 21.6946 30.236 29.3076 -1.95586e-12 -2.91472e-12 3.76908e-13 
Ar 9.58075 25.2179 14.7336 -1.48559e-13 2.38925e-14 -1.95718e-13 
Ar 35.5662 18.1033 33.2064 -1.70033e-13 5.0428e-13 -2.74255e-13 
Ar 32.1856 28.1186 27.7686 1.22932e-15 -2.88741e-16 -7.75216e-18 
Ar 8.21242 34.1914 0.67395 2.521e-14 -1.35451e-13 6.22264e-14 
Ar 31.1235 6.16261 35.5387 -4.65146e-17 1.77853e-16 3.69995e-16 
