32
comment
Ar 0.588543 0.924991 6.05535 -81.6583 -68.2004 242.214 
Ar 1.92958 7.00437 1.79647 77.183 174.975 -33.3414 
Ar -3.37863 3.78511 7.20794 -240.345 151.404 183.117 
Ar 2.65365 -8.0873 -6.72682 106.146 -323.492 -269.073 
Ar 5.05738 -2.24134 5.40308 97.095 -194.854 5.7234 
Ar 1.3522 1.63777 7.91804 54.0879 -39.6891 1.12158 
Ar 3.70394 0.669354 15.6943 42.9577 26.7741 312.174 
Ar 0.348299 7.37348 3.58749 13.9319 294.939 -66.9005 
Ar -1.85274 4.79786 5.04475 -179.31 -123.685 201.79 
Ar 2.23881 7.64807 8.66903 89.5525 -9.67731 241.561 
Ar 0.741064 4.09093 -0.234937 -75.5575 -46.7628 -114.597 
Ar -0.89352 3.9957 0.564346 -35.7408 -50.5719 22.5738 
Ar 4.56803 1.32356 5.73497 77.521 -262.657 18.9987 
Ar 2.81661 5.34236 12.3929 112.664 -101.906 180.115 
Ar 1.22571 7.96808 5.60552 -56.1715 108.323 -91.3793 
Ar 7.1048 2.98457 -0.925811 284.192 -91.017 -247.432 
Ar 5.81453 0.634683 1.0113 -83.0186 -79.8127 40.4521 
Ar -2.56336 4.02043 -5.62118 -312.934 55.6172 -330.047 
Ar 8.0311 2.57949 1.63347 5.64408 103.179 -39.8612 
Ar 6.72822 -2.21901 -1.65497 58.729 -88.7604 -66.1989 
Ar -2.34521 2.14237 4.07409 -409.408 -19.5053 -47.4366 
Ar 11.9267 -3.54043 7.81905 266.667 -246.817 -2.83797 
Ar 17.4274 -4.51891 11.5606 381.498 -180.756 146.824 
Ar 9.8638 5.26727 6.30944 184.152 210.691 41.9777 
Ar 9.36845 11.4318 3.80467 59.1381 141.672 152.187 
Ar 1.93835 9.19354 8.86128 -132.866 52.1416 249.251 
Ar 7.45247 8.89492 3.43072 -17.5013 145.397 32.0288 
Ar 1.65199 8.06506 -2.58324 -144.321 112.202 -103.33 
Ar 11.942 7.23405 6.2802 162.08 -26.2379 40.8078 
Ar 9.46961 6.7437 8.6681 168.384 -45.852 31.1239 
Ar 10.5397 3.84037 7.08429 105.988 -56.7853 -32.2285 
Ar 4.7769 7.38389 9.26348 -19.3241 84.9556 160.139 
