32
comment
Ar -2.2695 -1.46202 14.5328 -81.6583 -68.2004 242.214 
Ar 4.63098 13.1285 0.629519 77.183 174.975 -33.3414 
Ar -11.7907 9.08426 13.617 -240.345 151.404 183.117 
Ar 6.36875 -19.4095 -16.1444 106.146 -323.492 -269.073 
Ar 8.4557 -9.06121 5.6034 97.095 -194.854 5.7234 
Ar 3.24527 0.248651 7.95729 54.0879 -39.6891 1.12158 
Ar 5.20746 1.60645 26.6204 42.9577 26.7741 312.174 
Ar 0.835917 17.6964 1.24597 13.9319 294.939 -66.9005 
Ar -8.12858 0.468876 12.1074 -179.31 -123.685 201.79 
Ar 5.37315 7.30936 17.1237 89.5525 -9.67731 241.561 
Ar -1.90345 2.45423 -4.24585 -75.5575 -46.7628 -114.597 
Ar -2.14445 2.22569 1.35443 -35.7408 -50.5719 22.5738 
Ar 7.28126 -7.86944 6.39992 77.521 -262.657 18.9987 
Ar 6.75986 1.77565 18.6969 112.664 -101.906 180.115 
Ar -0.74029 11.7594 2.40724 -56.1715 108.323 -91.3793 
Ar 17.0515 -0.201022 -9.58595 284.192 -91.017 -247.432 
Ar 2.90888 -2.15876 2.42713 -83.0186 -79.8127 40.4521 
Ar -13.5161 5.96703 -17.1728 -312.934 55.6172 -330.047 
Ar 8.22864 6.19077 0.23833 5.64408 103.179 -39.8612 
Ar 8.78374 -5.32562 -3.97193 58.729 -88.7604 -66.1989 
Ar -16.6745 1.45968 2.41381 -409.408 -19.5053 -47.4366 
Ar 21.26 -12.179 7.71972 266.667 -246.817 -2.83797 
Ar 30.7799 -10.8454 16.6994 381.498 -180.756 146.824 
Ar 16.3091 12.6415 7.77866 184.152 210.691 41.9777 
Ar 11.4383 16.3903 9.13121 59.1381 141.672 152.187 
Ar -2.71197 11.0185 17.5851 -132.866 52.1416 249.251 
Ar 6.83992 13.9838 4.55173 -17.5013 145.397 32.0288 
Ar -3.39923 11.9921 -6.19977 -144.321 112.202 -103.33 
Ar 17.6148 6.31572 7.70847 162.08 -26.2379 40.8078 
Ar 15.3631 5.13888 9.75743 168.384 -45.852 31.1239 
Ar 14.2493 1.85288 5.95629 105.988 -56.7853 -32.2285 
Ar 4.10056 10.3573 14.8684 -19.3241 84.9556 160.139 
