32
comment
Ar 10.8012 3.82221 11.8113 1.06132e-13 -4.23117e-13 -7.85232e-14 
Ar 24.2692 3.47484 23.1522 -1.06884e-13 3.27365e-14 -2.02411e-13 
Ar 29.0883 17.3292 4.06426 2.61824e-14 -5.33665e-14 9.50565e-15 
Ar 10.8608 32.1909 0.917445 -6.4624e-14 -2.66752e-14 -1.30961e-13 
Ar 0.939915 7.73092 33.4723 6.57969e-16 3.07978e-15 3.90805e-16 
Ar 18.1702 5.82242 0.187596 -7.10324e-14 1.77495e-14 2.24663e-13 
Ar 25.6941 10.8247 1.68851 -2.19092e-13 -1.34978e-14 -1.99696e-13 
Ar 5.59572 33.728 15.0351 -8.64224e-13 -7.75309e-13 3.72926e-13 
Ar 29.078 7.5371 28.4441 -9.22077e-14 5.64883e-14 1.66985e-14 
Ar 12.1618 13.2025 29.4185 2.24368e-14 -1.93849e-15 8.61095e-14 
Ar 4.62091 15.5868 1.86986 2.84193e-12 4.46831e-12 6.57863e-12 
Ar 16.6897 8.43694 10.8247 6.13741e-13 -3.03603e-13 -3.64712e-13 
Ar 31.6174 2.8006 34.1917 8.4975e-14 -9.45778e-15 8.06902e-14 
Ar 0.237517 10.9106 6.75835 2.97929e-13 5.99667e-14 -2.37429e-13 
Ar 1.539 17.8467 29.7162 -9.40201e-13 1.66038e-12 -4.03941e-13 
Ar 8.64123 32.4239 35.3218 1.15897e-15 6.85284e-14 4.48366e-14 
Ar 8.42252 14.0774 13.1427 -6.84721e-13 -2.26479e-12 -1.63741e-12 
Ar 14.5171 8.70496 22.9462 -1.61858e-12 -3.75559e-12 -4.80397e-12 
Ar 7.76185 1.30062 15.0543 7.91043e-15 2.66543e-14 -1.66493e-14 
Ar 9.89305 27.5476 16.8424 -6.50606e-12 5.97478e-12 -3.12253e-12 
Ar 2.33668 11.2568 7.22531 -2.3481e-06 -3.87207e-07 -5.22333e-07 
Ar 20.0535 19.5823 16.9856 -2.27153e-15 4.77916e-15 1.73956e-16 
Ar 21.3795 25.8598 30.9516 1.49824e-13 7.76411e-13 -1.38935e-12 
Ar 1.88002 19.8903 8.20442 8.76103e-16 1.45906e-15 2.66707e-16 
Ar 10.1817 9.65199 14.6757 -1.12825e-13 4.16182e-13 -3.90741e-14 
Ar 8.65788 3.39216 15.4826 -1.96303e-13 -1.80772e-13 -4.04683e-14 
Ar 22.3433 20.8554 21.9683 -4.16943e-11 2.24485e-11 8.82152e-11 
Ar 7.50224 7.98999 5.09355 -1.50029e-11 4.58986e-13 1.62753e-11 
Ar 18.327 18.5726 29.4664 1.36729e-15 -4.47982e-15 1.36988e-14 
Ar 13.2571 26.8947 11.8745 1.06242e-14 -4.57926e-15 2.09274e-16 
Ar 12.2833 8.1423 35.707 -6.72231e-13 5.81184e-12 7.6301e-12 
Ar 17.2375 26.4722 20.9073 1.38537e-16 1.60958e-16 1.52607e-17 
