32
comment
Ar -4.71925 -3.50803 21.7993 -81.6583 -68.2004 242.214 
Ar 6.94647 18.3777 -0.370722 77.183 174.975 -33.3414 
Ar -19.0011 13.6264 19.1106 -240.345 151.404 183.117 
Ar 9.55313 -29.1143 -24.2166 106.146 -323.492 -269.073 
Ar 11.3686 -14.9068 5.77511 97.095 -194.854 5.7234 
Ar 4.86791 -0.942023 7.99094 54.0879 -39.6891 1.12158 
Ar 6.49619 2.40967 35.9856 42.9577 26.7741 312.174 
Ar 1.25388 26.5445 -0.761041 13.9319 294.939 -66.9005 
Ar -13.5079 -3.24169 18.1611 -179.31 -123.685 201.79 
Ar 8.05973 7.01904 24.3705 89.5525 -9.67731 241.561 
Ar -4.17017 1.05134 -7.68377 -75.5575 -46.7628 -114.597 
Ar -3.21667 0.708529 2.03164 -35.7408 -50.5719 22.5738 
Ar 9.60689 -15.7492 6.96988 77.521 -262.657 18.9987 
Ar 10.1398 -1.28152 24.1003 112.664 -101.906 180.115 
Ar -2.42544 15.0091 -0.33414 -56.1715 108.323 -91.3793 
Ar 25.5773 -2.93153 -17.0089 284.192 -91.017 -247.432 
Ar 0.418325 -4.55314 3.64069 -83.0186 -79.8127 40.4521 
Ar -22.9041 7.63555 -27.0743 -312.934 55.6172 -330.047 
Ar 8.39797 9.28615 -0.957504 5.64408 103.179 -39.8612 
Ar 10.5456 -7.98843 -5.9579 58.729 -88.7604 -66.1989 
Ar -28.9568 0.874526 0.990708 -409.408 -19.5053 -47.4366 
Ar 29.26 -19.5836 7.63458 266.667 -246.817 -2.83797 
Ar 42.2248 -16.2681 21.1042 381.498 -180.756 146.824 
Ar 21.8337 18.9622 9.038 184.152 210.691 41.9777 
Ar 13.2124 20.6405 13.6968 59.1381 141.672 152.187 
Ar -6.69796 12.5827 25.0626 -132.866 52.1416 249.251 
Ar 6.31488 18.3457 5.51259 -17.5013 145.397 32.0288 
Ar -7.72885 15.3582 -9.29966 -144.321 112.202 -103.33 
Ar 22.4772 5.52859 8.93271 162.08 -26.2379 40.8078 
Ar 20.4146 3.76332 10.6911 168.384 -45.852 31.1239 
Ar 17.4289 0.149324 4.98944 105.988 -56.7853 -32.2285 
Ar 3.52084 12.906 19.6725 -19.3241 84.9556 160.139 
