32
comment
Ar 3.00357e+09 6.49028e+09 9.64658e+08 -3.00357e+13 -6.49028e+13 -9.64658e+12 
Ar 23.2803 0.346937 5.02608 137716 100359 48713.2 
Ar 8.46495 3.88682 7.12762 -5254.54 4703.45 5344.67 
Ar 1.50178e+09 3.24514e+09 4.82329e+08 1.50178e+13 3.24514e+13 4.82329e+12 
Ar 3.27086 1.29055 5.27529 87.4329 -199.119 -3.1746 
Ar 5412.14 4503.57 9754.27 7.83501e+06 6.53278e+06 1.4036e+07 
Ar 2.922 0.191756 10.0042 42.8767 28.9996 310.086 
Ar 1.13742e+09 8.81648 5.88209 1.8957e+12 -1.86224e+12 -1.99234e+12 
Ar 0.887674 17.3703 3.11251 -5426.29 -138860 17323.3 
Ar 0.635538 7.79848 4.29351 108.164 -29.4213 282.811 
Ar 18533.6 14388.2 27841.8 6.18797e+07 4.80516e+07 9.29019e+07 
Ar 10.3082 5.95264 6.3649 104.701 1983.03 12021.5 
Ar 3.17315 6.05547 5.42648 90.1054 -280.686 45.6523 
Ar 4.86594e+09 3.38987e+11 4.48078e+10 2.7033e+12 1.88326e+14 2.48932e+13 
Ar 27867.1 1.18635e+06 88934.4 -2.78589e+08 9.1268e+08 -8.89312e+08 
Ar 3491.7 2739.99 5350.74 -3.49011e+07 -2.73545e+07 -5.34746e+07 
Ar 7.31101 2.10983 0.341735 -103.244 -42.8385 130.835 
Ar 190.762 73.8905 84.2372 -1.87143e+06 -710767 141342 
Ar 7.91978 0.719176 2.35499 3.27632 110.571 -44.363 
Ar 5.66184 9.92776 10.076 59.2911 -90.5417 -67.9324 
Ar 1205.17 2.24448 4679.86 604836 -7.64311e+06 2.05301e+06 
Ar 7.07108 0.951202 7.829 265.842 -246.822 -13.9913 
Ar 10.4775 9.3208 8.88584 379.799 -182.372 145.815 
Ar 6.09712 8929.58 5.31178 -302528 3.82522e+06 -1.02734e+06 
Ar 8.29158 8.84339 1.043 58.907 138.394 154.731 
Ar 4.34276 8.22124 4.34351 -138.916 42.2447 256.825 
Ar 7.76897 6.25499 2.85198 -15.1857 147.938 35.5845 
Ar 4.2785 6.02849 9.82058 -144.476 113.712 -108.053 
Ar 9.26287 7.82607 5.83282 1034.77 392.311 980.291 
Ar 112.598 10.0919 1.21079 153638 5881.5 54281.5 
Ar 2.39749 5.31841 11.4957 10037.3 97681.7 -24749.6 
Ar 5.08999 5.85935 6.34349 -49.6623 95.7914 150.331 
