32
comment
Ar 3.17215 11.6425 3.4688 -5.51502e-12 -7.61337e-11 -3.21536e-11 
Ar 7.12752 1.02051 6.79947 -9.12315e-12 2.62472e-12 -2.40783e-11 
Ar 19.0628 5.08934 1.19362 -4.32344e-15 -3.68645e-16 -2.31856e-14 
Ar 34.7497 19.974 21.3094 -9.11292e-13 4.46675e-12 -2.95768e-12 
Ar 31.836 2.27046 9.83035 6.7631e-13 5.80481e-13 5.95972e-13 
Ar 5.33633 1.70996 0.0550943 -6.0878e-12 -1.11023e-12 2.31841e-11 
Ar 18.066 24.2191 21.5359 7.14539e-14 -1.57231e-14 1.09562e-14 
Ar 33.2034 9.90543 14.9356 8.48351e-12 -1.87592e-12 4.54081e-13 
Ar 29.5798 12.7335 18.8736 2.84094e-14 -2.16015e-14 -6.17073e-15 
Ar 24.6118 3.87738 19.1598 -1.89706e-12 1.98105e-12 -8.60937e-13 
Ar 32.9171 25.6176 0.549151 -1.8996e-12 -4.12685e-13 1.298e-12 
Ar 15.4215 2.47781 24.2191 -1.24828e-12 2.3102e-13 7.24426e-13 
Ar 9.28557 11.3425 31.0816 2.4477e-14 6.24226e-15 1.40464e-14 
Ar 0.0697554 34.7643 23.0248 1.34871e-15 1.02864e-15 1.11548e-15 
Ar 10.972 15.7613 19.2472 1.11754e-13 -1.59331e-14 1.30576e-14 
Ar 2.5378 20.0424 20.8935 1.25691e-12 1.0563e-11 1.66997e-11 
Ar 12.9936 4.13434 3.85982 3.43675e-15 5.58362e-15 6.6857e-15 
Ar 4.26348 13.0765 17.259 -2.30737e-11 1.07858e-11 6.21399e-12 
Ar 2.27954 0.381974 25.4612 -6.43728e-15 -1.19799e-14 -2.06138e-14 
Ar 2.90545 8.09034 4.94636 3.26616e-10 -6.38688e-10 1.23466e-10 
Ar 11.2062 13.826 12.642 2.87093e-14 -8.70211e-15 1.63663e-14 
Ar 5.88943 26.791 4.98842 4.62164e-14 3.16298e-14 1.26957e-13 
Ar 6.27885 28.6346 19.61 1.40138e-12 1.24045e-12 2.24486e-12 
Ar 21.5921 26.8815 2.40952 -1.75079e-15 -2.85004e-15 3.17762e-15 
Ar 2.99023 23.8747 14.83 6.19645e-12 2.26644e-12 -2.53755e-11 
Ar 34.1027 32.5562 25.587 -1.01858e-10 -8.28204e-11 -1.1029e-11 
Ar 6.5619 16.6449 16.9718 -3.67436e-17 -9.19278e-18 -6.72656e-16 
Ar 12.7233 2.34655 33.0559 -1.30125e-12 -1.19806e-11 -3.97934e-11 
Ar 26.4224 15.9745 19.1738 4.27417e-15 -6.05751e-17 1.97496e-16 
Ar 24.9334 7.89859 3.48736 4.89387e-15 1.91882e-15 -5.77531e-15 
Ar 3.60743 2.39128 21.0066 3.43849e-17 1.40657e-17 3.81042e-18 
Ar 26.1024 28.8145 16.6602 -7.03541e-16 1.14569e-15 5.24757e-15 
