32
comment
Ar 23.0809 18.9591 22.5243 -2.98367e-14 -1.23562e-13 -1.00023e-14 
Ar 15.6608 4.29942 18.2136 9.91412e-13 6.25806e-13 -2.72487e-13 
Ar 28.4679 16.9399 13.9457 -8.72903e-13 -3.20647e-13 -1.36483e-12 
Ar 21.9544 14.1716 12.8407 2.91575e-13 -7.99825e-14 1.46531e-13 
Ar 28.5709 0.0145222 35.3893 -1.08085e-11 -1.12726e-12 -2.01991e-12 
Ar 14.8051 31.3792 34.0466 7.73961e-15 9.20509e-15 8.15619e-15 
Ar 23.5479 7.10494 0.574672 -4.98442e-15 -8.92164e-15 1.12428e-14 
Ar 18.5611 26.5227 27.1958 -1.17263e-11 -7.79695e-11 -7.20986e-12 
Ar 9.18688 22.5669 7.75859 -9.67428e-14 -5.36691e-14 5.35758e-14 
Ar 3.87547 34.6609 5.26614 -1.48092e-13 -1.04727e-13 6.98266e-14 
Ar 0.500298 7.08081 8.63455 -5.75945e-13 -6.1613e-13 -4.41979e-13 
Ar 7.09194 20.0396 7.10494 -3.59886e-16 2.92151e-15 2.21263e-16 
Ar 16.7303 20.9896 13.8059 3.94199e-14 2.21422e-13 1.98396e-13 
Ar 11.5627 0.671071 15.4998 3.64876e-13 3.39266e-12 -4.72954e-12 
Ar 30.9496 27.2461 10.5004 1.31615e-14 7.3872e-15 -1.29524e-14 
Ar 32.4226 8.55811 7.19385 -7.27748e-16 3.27306e-16 1.30566e-16 
Ar 3.91569 9.93599 30.8315 6.24597e-12 4.74091e-12 -4.5485e-12 
Ar 29.1011 26.0733 9.3015 -8.1563e-15 -2.95236e-14 2.82965e-14 
Ar 26.119 2.08404 15.8319 7.19314e-13 -5.15897e-13 -1.47611e-12 
Ar 17.6878 32.282 27.7469 4.781e-15 5.28149e-15 -1.17097e-14 
Ar 24.5695 8.25817 7.42371 -5.52e-12 -9.98967e-13 -1.71075e-11 
Ar 11.8087 5.76835 8.59252 -2.33664e-14 -2.20587e-15 -4.64978e-15 
Ar 0.398945 35.0386 1.01445 7.39826e-11 -9.22193e-12 -9.10551e-11 
Ar 16.3872 13.2067 24.6246 2.98045e-12 -1.9624e-12 -2.14396e-12 
Ar 8.30808 13.9695 28.1388 2.96722e-13 3.4146e-13 -2.11392e-14 
Ar 8.60121 22.9155 33.2014 9.11333e-16 4.27693e-15 -2.95969e-15 
Ar 28.0099 10.2848 18.0519 4.51641e-15 -4.7699e-15 1.39186e-14 
Ar 34.464 14.5072 26.8183 -2.27261e-11 -9.24392e-11 3.03328e-11 
Ar 15.9328 1.96815 21.8343 7.04787e-16 1.27406e-16 8.01966e-16 
Ar 13.648 18.5914 7.91076 -1.04233e-16 5.0129e-17 2.78498e-16 
Ar 33.1808 19.7265 28.531 -3.59357e-15 1.35848e-14 -4.70495e-15 
Ar 28.2045 1.28803 3.77434 3.02156e-15 8.9874e-13 -5.77459e-13 
