32
comment
Ar 2.58918 2.59591 0.121206 -81.6272 -68.1756 242.634 
Ar 0.0386873 2.71749 2.61337 77.5784 174.999 -33.1677 
Ar 2.50983 0.0757988 2.7216 -240.349 151.806 183.293 
Ar 0.0530856 10.4229 10.4393 106.18 -323.564 -269.142 
Ar 2.67855 2.53257 5.26285 97.0964 -194.866 5.67978 
Ar 0.0271123 2.61016 7.89049 54.3617 -39.6892 0.849215 
Ar 2.65148 0.013456 8.04602 42.9647 27.0488 311.917 
Ar 0.00703761 0.147541 5.22655 14.2267 295.23 -66.9265 
Ar 2.54035 7.82812 0.100966 -179.303 -123.818 202.081 
Ar 0.0448477 7.88511 2.7508 89.8447 -9.89696 241.655 
Ar 2.59222 5.23661 2.57274 -75.5695 -46.7881 -114.437 
Ar 10.5092 5.23471 0.0113194 -35.9408 -50.5725 22.6858 
Ar 2.66877 7.75858 5.2695 77.546 -263.046 18.9774 
Ar 0.0563807 7.83902 7.98003 112.862 -101.996 180.034 
Ar 2.60193 5.31417 7.84423 -56.1011 108.357 -91.6794 
Ar 0.142191 5.21449 5.13628 284.58 -91.0251 -247.482 
Ar 7.84848 2.59012 0.0202947 -83.0627 -79.7293 40.7278 
Ar 5.10352 2.65781 2.46501 -313.005 55.6329 -329.91 
Ar 7.89277 0.051658 2.61009 5.45196 103.454 -39.7844 
Ar 5.28938 10.4934 10.5001 58.7912 -88.8275 -66.3254 
Ar 7.6852 2.62026 5.23627 -409.8 -19.4389 -47.4903 
Ar 5.39332 2.50662 7.8885 266.603 -246.688 -3.16449 
Ar 8.08071 10.4657 7.9634 381.326 -180.896 146.796 
Ar 5.35206 0.105444 5.28097 184.086 211.101 41.9104 
Ar 7.91956 7.96079 0.076139 59.1156 141.478 152.367 
Ar 5.19356 7.916 2.75465 -132.894 51.8508 249.365 
Ar 7.8812 5.3327 2.64602 -17.6889 145.407 32.041 
Ar 5.18784 5.3161 10.4889 -144.325 112.224 -103.608 
Ar 7.97097 7.87683 5.28042 161.808 -26.4318 40.8792 
Ar 5.34421 7.86702 7.90554 168.444 -46.0599 31.0233 
Ar 7.9429 5.23161 7.87384 105.631 -56.7687 -32.425 
Ar 5.25033 5.30248 5.34007 -19.3466 84.9739 160.162 
