32
comment
Ar 12.1728 13.6769 0.00104685 1.38396e-11 3.44197e-11 -4.70105e-11 
Ar 0.000244895 7.90226 7.897 7.0297e-14 3.71526e-14 -2.36477e-14 
Ar 26.1048 0.766445 8.55801 -0.00957791 -0.0159492 0.00635244 
Ar 8.7133 2.48826 34.5609 -2.6377e-13 5.87274e-13 8.75285e-13 
Ar 11.5963 11.5877 12.6752 -2.69759e-13 -1.30805e-13 4.61206e-13 
Ar 6.58213e-05 7.94409 26.8958 3.10248e-13 -1.16367e-13 9.9533e-14 
Ar 29.4645 8.63698e-05 30.0463 -1.52893e-11 1.52162e-12 1.76046e-11 
Ar 10.5976 13.0063 23.3285 -2.57771e-08 -2.57777e-08 6.88423e-14 
Ar 4.78849 30.0445 0.000626155 2.45043e-14 -9.87188e-14 6.56917e-14 
Ar 6.00551 30.8764 11.1884 -1.5503 0.000271324 -1.55263 
Ar 11.7898 12.467 11.7891 0.000459729 -0.00208921 -0.0021054 
Ar 7.99535 12.675 8.63698e-05 3.65321e-10 -8.71985e-11 -1.15905e-13 
Ar 9.35063 26.8951 12.6751 8.60917e-11 9.68722e-11 2.76454e-11 
Ar 11.3711 32.3987 25.7652 -5.00552e-11 -8.97405e-11 1.64411e-10 
Ar 29.2159 5.82437 25.8636 -2.91183e+06 2.97218e+06 -4778.37 
Ar 0.000738957 12.6738 12.6734 1.5307e-12 2.15387e-11 2.14848e-11 
Ar 30.0448 4.78902 2.3481 -7.70549e-12 -2.46092e-12 -1.22275e-11 
Ar 12.6708 11.5869 11.5788 -0.00226524 -0.00209696 -0.000670552 
Ar 30.0456 0.000294133 29.4644 0.56328 0.000201413 0.564315 
Ar 12.6756 1.02216 10.8786 -6.27346e-14 6.32131e-12 4.39263e-12 
Ar 30.0432 6.20292 12.6748 -1.84976e-11 -3.51749e-13 1.16922e-11 
Ar 12.6733 9.34603 26.8945 1.02219 -1.04337 0.00167743 
Ar 30.0469 3.67719 26.897 -2.14159e-16 2.11899e-15 4.59087e-16 
Ar 12.6745 0.000562513 12.6742 2.41218e-09 -2.42171e-06 -4.2563e-06 
Ar 15.4201 19.5938 19.4215 1.17633e-14 3.18225e-14 4.05574e-14 
Ar 12.6729 30.0456 6.2058 1.13914e-11 -1.39391e-11 -2.37036e-11 
Ar 30.0435 12.6729 6.20264 -1.34307e-11 1.53101e-11 -1.10938e-11 
Ar 12.6745 12.7619 0.660566 5.52903e-09 1.69747e-07 -4.05778e-06 
Ar 30.0457 30.0452 12.6752 -3.33435e-12 -4.96208e-12 2.65904e-12 
Ar 12.6739 30.0452 30.0438 5.25089e-11 8.85898e-11 -1.6577e-10 
Ar 30.044 12.6717 30.0436 -7.46375e-12 1.67125e-11 -1.03863e-11 
Ar 12.6716 12.6743 2.75413 9.25364e-05 0.00284099 0.0659237 
