32
comment
Ar 3.00357e+09 6.49028e+09 9.64658e+08 -3.00357e+13 -6.49028e+13 -9.64658e+12 
Ar 36.2869 8.93062 3.47136 137716 100359 48713.2 
Ar 6.36317 5.7683 9.26542 -5255.09 4703.96 5344.4 
Ar 7.50892e+09 1.62257e+10 2.41164e+09 1.50178e+13 3.24514e+13 4.82329e+12 
Ar 3.30584 1.21094 5.27403 87.5283 -198.905 -3.16093 
Ar 8504.06 7074.6 15326.6 7.83501e+06 6.53278e+06 1.4036e+07 
Ar 2.93915 0.203361 10.1282 42.8946 29.0197 310.06 
Ar 1.8957e+09 8.81648 5.88209 1.8957e+12 -1.86224e+12 -1.99234e+12 
Ar 9.63198 17.3706 10.0412 -5429.72 -138863 17318.4 
Ar 0.678864 7.78667 4.40665 108.466 -29.6047 282.899 
Ar 43243.4 33566.7 64960.5 6.18797e+07 4.80516e+07 9.29019e+07 
Ar 0.27937 315.92 1.80833 -163366 1.65295e+06 -987030 
Ar 3.21092 5.94315 5.44549 99.0954 -280.811 49.6271 
Ar 5.94726e+09 4.14318e+11 5.47651e+10 2.7033e+12 1.88326e+14 2.48932e+13 
Ar 27867.1 1.55138e+06 88934.4 -2.78589e+08 9.1268e+08 -8.89312e+08 
Ar 3491.7 2739.99 5350.74 -3.49011e+07 -2.73545e+07 -5.34746e+07 
Ar 7.26981 2.09249 0.394382 -172.511 -25.8967 230.543 
Ar 190.762 73.8905 98.6942 -1.87143e+06 -710767 141342 
Ar 7.92099 0.763626 2.33693 2.35771 112.109 -46.1813 
Ar 5.68555 9.89153 10.0488 59.2818 -90.611 -67.9535 
Ar 1405.02 2.24448 5458.98 604836 -7.64311e+06 2.05301e+06 
Ar 7.17741 0.852495 7.8234 265.808 -246.741 -14.0093 
Ar 0.109374 9.2478 8.94414 379.777 -182.509 145.736 
Ar 6.09712 10417.6 5.31178 -302528 3.82522e+06 -1.02734e+06 
Ar 8.31514 8.8987 1.10493 58.8525 138.154 154.911 
Ar 4.28712 8.23792 4.44635 -139.3 41.1792 257.379 
Ar 7.76292 6.31422 2.86623 -15.1345 148.177 35.6003 
Ar 4.21941 6.07161 9.77608 -147.542 105.678 -112.698 
Ar 9.67551 7.9608 6.22221 1030.96 330.408 973.106 
Ar 131.973 1.92452 1.88339 153638 5881.5 54281.5 
Ar 6.41392 2.31385 1.59699 10112.5 97673.1 -24843.7 
Ar 5.06821 5.89737 6.40281 -59.3679 94.7058 146.039 
