32
comment
Ar -0.146382 0.311187 8.23527 -81.6583 -68.2004 242.214 
Ar 2.62422 8.57914 1.49639 77.183 174.975 -33.3414 
Ar -5.54174 5.14774 8.85599 -240.345 151.404 183.117 
Ar 3.60896 -10.9987 -9.14848 106.146 -323.492 -269.073 
Ar 5.93123 -3.99502 5.4546 97.095 -194.854 5.7234 
Ar 1.83899 1.28057 7.92813 54.0879 -39.6891 1.12158 
Ar 4.09056 0.910321 18.5039 42.9577 26.7741 312.174 
Ar 0.473686 10.0279 2.98538 13.9319 294.939 -66.9005 
Ar -3.46653 3.6847 6.86086 -179.31 -123.685 201.79 
Ar 3.04479 7.56097 10.8431 89.5525 -9.67731 241.561 
Ar 0.0610465 3.67006 -1.26631 -75.5575 -46.7628 -114.597 
Ar -1.21519 3.54056 0.76751 -35.7408 -50.5719 22.5738 
Ar 5.26571 -1.04035 5.90595 77.521 -262.657 18.9987 
Ar 3.83059 4.4252 14.0139 112.664 -101.906 180.115 
Ar 0.720169 8.94299 4.7831 -56.1715 108.323 -91.3793 
Ar 9.66253 2.16542 -3.1527 284.192 -91.017 -247.432 
Ar 5.06737 -0.0836318 1.37537 -83.0186 -79.8127 40.4521 
Ar -5.37976 4.52099 -8.59161 -312.934 55.6172 -330.047 
Ar 8.0819 3.5081 1.27472 5.64408 103.179 -39.8612 
Ar 7.25679 -3.01785 -2.25076 58.729 -88.7604 -66.1989 
Ar -6.02988 1.96682 3.64716 -409.408 -19.5053 -47.4366 
Ar 14.3267 -5.76179 7.79351 266.667 -246.817 -2.83797 
Ar 20.8609 -6.14571 12.882 381.498 -180.756 146.824 
Ar 11.5212 7.16349 6.68724 184.152 210.691 41.9777 
Ar 9.9007 12.7069 5.17435 59.1381 141.672 152.187 
Ar 0.742549 9.66281 11.1045 -132.866 52.1416 249.251 
Ar 7.29495 10.2035 3.71898 -17.5013 145.397 32.0288 
Ar 0.353102 9.07488 -3.5132 -144.321 112.202 -103.33 
Ar 13.4007 6.99791 6.64747 162.08 -26.2379 40.8078 
Ar 10.9851 6.33103 8.94821 168.384 -45.852 31.1239 
Ar 11.4936 3.3293 6.79423 105.988 -56.7853 -32.2285 
Ar 4.60298 8.14849 10.7047 -19.3241 84.9556 160.139 
