32
comment
Ar 1.07849 1.33419 4.60206 -81.6583 -68.2004 242.214 
Ar 1.46648 5.95452 1.99651 77.183 174.975 -33.3414 
Ar -1.93656 2.87668 6.10923 -240.345 151.404 183.117 
Ar 2.01677 -6.14635 -5.11238 106.146 -323.492 -269.073 
Ar 4.47481 -1.07222 5.36874 97.095 -194.854 5.7234 
Ar 1.02767 1.87591 7.91131 54.0879 -39.6891 1.12158 
Ar 3.4462 0.508709 13.8213 42.9577 26.7741 312.174 
Ar 0.264707 5.60385 3.98889 13.9319 294.939 -66.9005 
Ar -0.776885 5.53998 3.83401 -179.31 -123.685 201.79 
Ar 1.7015 7.70613 7.21966 89.5525 -9.67731 241.561 
Ar 1.19441 4.37151 0.452648 -75.5575 -46.7628 -114.597 
Ar -0.679075 4.29913 0.428903 -35.7408 -50.5719 22.5738 
Ar 4.1029 2.89951 5.62097 77.521 -262.657 18.9987 
Ar 2.14062 5.95379 11.3122 112.664 -101.906 180.115 
Ar 1.56274 7.31814 6.15379 -56.1715 108.323 -91.3793 
Ar 5.39965 3.53068 0.558784 284.192 -91.017 -247.432 
Ar 6.31265 1.11356 0.76859 -83.0186 -79.8127 40.4521 
Ar -0.685751 3.68673 -3.6409 -312.934 55.6172 -330.047 
Ar 7.99724 1.96041 1.87264 5.64408 103.179 -39.8612 
Ar 6.37585 -1.68645 -1.25778 58.729 -88.7604 -66.1989 
Ar 0.111242 2.2594 4.3587 -409.408 -19.5053 -47.4366 
Ar 10.3267 -2.05953 7.83608 266.667 -246.817 -2.83797 
Ar 15.1385 -3.43437 10.6797 381.498 -180.756 146.824 
Ar 8.75889 4.00313 6.05758 184.152 210.691 41.9777 
Ar 9.01362 10.5818 2.89155 59.1381 141.672 152.187 
Ar 2.73554 8.88069 7.36577 -132.866 52.1416 249.251 
Ar 7.55747 8.02254 3.23855 -17.5013 145.397 32.0288 
Ar 2.51791 7.39185 -1.96326 -144.321 112.202 -103.33 
Ar 10.9695 7.39148 6.03535 162.08 -26.2379 40.8078 
Ar 8.4593 7.01881 8.48135 168.384 -45.852 31.1239 
Ar 9.90377 4.18108 7.27766 105.988 -56.7853 -32.2285 
Ar 4.89284 6.87416 8.30265 -19.3241 84.9556 160.139 
