32
comment
Ar 2.89251 2.53815 1.16448 4333.82 1541.47 210.658 
Ar 0.373438 3.43979 2.48343 90.7173 180.4 -28.017 
Ar 1.51841 0.713718 3.48548 -248.043 163.548 196.495 
Ar 0.489391 9.05603 9.31359 108.393 -429.777 -315.655 
Ar 3.07302 1.72844 5.27954 93.9043 -198.289 0.568414 
Ar 0.254292 2.44611 7.88867 56.3332 -40.4931 -1.98362 
Ar 2.82768 0.12819 9.32162 42.9317 28.6994 310.476 
Ar 0.0808244 1.36292 4.94374 29.0685 295.304 -77.6171 
Ar 1.80496 7.31491 0.937974 -179.238 -128.234 207.452 
Ar 0.420553 7.83751 3.743 93.9298 -14.0091 241.99 
Ar 2.27375 5.04007 2.11049 -84.7268 -51.2544 -106.134 
Ar 10.3582 5.02749 0.105952 -37.5908 -50.4987 23.4683 
Ar 2.99032 6.66653 5.34863 80.7516 -272.298 22.2832 
Ar 0.523966 7.46186 8.73975 114.235 17.7163 231.179 
Ar 2.37295 5.76581 7.45798 -54.8957 114.393 -99.9193 
Ar 1.32045 4.84089 4.10719 292.093 -92.3577 -263.325 
Ar 7.50717 2.26272 0.192855 -83.3104 -80.5194 43.8654 
Ar 194.045 78.7828 4.7237 -1.87143e+06 -710767 141343 
Ar 7.91184 0.481321 2.44723 3.78636 106.476 -40.2617 
Ar 5.53141 10.1267 10.2253 59.2434 -90.2333 -67.7711 
Ar 105.968 8.27552 394.681 604836 -7.64311e+06 2.05301e+06 
Ar 6.48618 1.49473 7.85951 265.977 -247.247 -13.7903 
Ar 9.64155 9.72158 8.56441 380.142 -182 146.292 
Ar 4.42288 745.533 5.20822 -302528 3.82522e+06 -1.02734e+06 
Ar 8.1618 8.53741 0.703675 59.0325 139.719 153.767 
Ar 4.64498 8.12196 3.78253 -135.695 47.7153 253.059 
Ar 7.8069 5.931 2.77796 -18.2902 146.796 32.364 
Ar 4.59611 5.77834 10.0576 -144.229 113.602 -107.113 
Ar 8.63003 7.76492 5.44928 159.719 -28.2278 41.4389 
Ar 6.03489 7.67263 8.03151 168.044 -49.2705 30.4123 
Ar 8.3701 5.00016 7.73746 102.85 -55.8856 -34.0288 
Ar 5.16572 5.65592 5.99803 -24.7415 89.2505 160.502 
