32
comment
Ar -3.57603 -2.55323 18.4083 -81.6583 -68.2004 242.214 
Ar 5.86591 15.9281 0.0960569 77.183 174.975 -33.3414 
Ar -15.6362 11.5067 16.5469 -240.345 151.404 183.117 
Ar 8.06709 -24.5854 -20.4495 106.146 -323.492 -269.073 
Ar 10.0092 -12.1789 5.69498 97.095 -194.854 5.7234 
Ar 4.11068 -0.386375 7.97524 54.0879 -39.6891 1.12158 
Ar 5.89479 2.03483 31.6152 42.9577 26.7741 312.174 
Ar 1.05883 22.4154 0.175565 13.9319 294.939 -66.9005 
Ar -10.9975 -1.51009 15.336 -179.31 -123.685 201.79 
Ar 6.80599 7.15452 20.9887 89.5525 -9.67731 241.561 
Ar -3.11237 1.70602 -6.07941 -75.5575 -46.7628 -114.597 
Ar -2.7163 1.41654 1.71561 -35.7408 -50.5719 22.5738 
Ar 8.5216 -12.072 6.7039 77.521 -262.657 18.9987 
Ar 8.56249 0.145162 21.5787 112.664 -101.906 180.115 
Ar -1.63903 13.4926 0.945171 -56.1715 108.323 -91.3793 
Ar 21.5986 -1.65729 -13.5449 284.192 -91.017 -247.432 
Ar 1.58059 -3.43577 3.07436 -83.0186 -79.8127 40.4521 
Ar -18.523 6.85691 -22.4536 -312.934 55.6172 -330.047 
Ar 8.31895 7.84164 -0.399448 5.64408 103.179 -39.8612 
Ar 9.7234 -6.74579 -5.03111 58.729 -88.7604 -66.1989 
Ar -23.225 1.1476 1.65482 -409.408 -19.5053 -47.4366 
Ar 25.5267 -16.1281 7.67431 266.667 -246.817 -2.83797 
Ar 36.8838 -13.7375 19.0486 381.498 -180.756 146.824 
Ar 19.2556 16.0125 8.45031 184.152 210.691 41.9777 
Ar 12.3845 18.6571 11.5662 59.1381 141.672 152.187 
Ar -4.83783 11.8528 21.5731 -132.866 52.1416 249.251 
Ar 6.5599 16.3102 5.06419 -17.5013 145.397 32.0288 
Ar -5.70836 13.7874 -7.85304 -144.321 112.202 -103.33 
Ar 20.2081 5.89592 8.3614 162.08 -26.2379 40.8078 
Ar 18.0572 4.40525 10.2554 168.384 -45.852 31.1239 
Ar 15.9451 0.944318 5.44064 105.988 -56.7853 -32.2285 
Ar 3.79137 11.7166 17.4306 -19.3241 84.9556 160.139 
