32
comment
Ar -3.2494 -2.28043 17.4394 -81.6583 -68.2004 242.214 
Ar 5.55718 15.2282 0.229422 77.183 174.975 -33.3414 
Ar -14.6749 10.9011 15.8145 -240.345 151.404 183.117 
Ar 7.64251 -23.2914 -19.3732 106.146 -323.492 -269.073 
Ar 9.62084 -11.3995 5.67208 97.095 -194.854 5.7234 
Ar 3.89433 -0.227618 7.97075 54.0879 -39.6891 1.12158 
Ar 5.72296 1.92774 30.3665 42.9577 26.7741 312.174 
Ar 1.0031 21.2356 0.443167 13.9319 294.939 -66.9005 
Ar -10.2803 -1.01535 14.5289 -179.31 -123.685 201.79 
Ar 6.44778 7.19323 20.0224 89.5525 -9.67731 241.561 
Ar -2.81014 1.89308 -5.62102 -75.5575 -46.7628 -114.597 
Ar -2.57334 1.61882 1.62532 -35.7408 -50.5719 22.5738 
Ar 8.21151 -11.0213 6.6279 77.521 -262.657 18.9987 
Ar 8.11183 0.552785 20.8583 112.664 -101.906 180.115 
Ar -1.41435 13.0593 1.31069 -56.1715 108.323 -91.3793 
Ar 20.4618 -1.29323 -12.5551 284.192 -91.017 -247.432 
Ar 1.91266 -3.11651 2.91255 -83.0186 -79.8127 40.4521 
Ar -17.2713 6.63444 -21.1334 -312.934 55.6172 -330.047 
Ar 8.29637 7.42892 -0.240003 5.64408 103.179 -39.8612 
Ar 9.48849 -6.39075 -4.76632 58.729 -88.7604 -66.1989 
Ar -21.5874 1.22562 1.84457 -409.408 -19.5053 -47.4366 
Ar 24.46 -15.1408 7.68567 266.667 -246.817 -2.83797 
Ar 35.3579 -13.0145 18.4613 381.498 -180.756 146.824 
Ar 18.5189 15.1697 8.2824 184.152 210.691 41.9777 
Ar 12.1479 18.0904 10.9575 59.1381 141.672 152.187 
Ar -4.30637 11.6442 20.5761 -132.866 52.1416 249.251 
Ar 6.6299 15.7286 4.93607 -17.5013 145.397 32.0288 
Ar -5.13108 13.3386 -7.43973 -144.321 112.202 -103.33 
Ar 19.5598 6.00087 8.19816 162.08 -26.2379 40.8078 
Ar 17.3837 4.58866 10.1309 168.384 -45.852 31.1239 
Ar 15.5211 1.17146 5.56955 105.988 -56.7853 -32.2285 
Ar 3.86867 11.3768 16.79 -19.3241 84.9556 160.139 
