32
comment
Ar 2.34076 2.37666 0.940208 -29.4382 -54.1467 267.822 
Ar 0.303329 3.29694 2.50705 85.0228 177.272 -30.5627 
Ar 1.71439 0.585119 3.33185 -243.037 158.577 188.933 
Ar 0.40378 9.34696 9.54522 106.502 -337.229 -277.633 
Ar 2.99724 1.8867 5.27826 95.3269 -197.313 2.5523 
Ar 0.209349 2.47842 7.88998 56.0154 -40.2864 -1.30285 
Ar 2.79331 0.105314 9.07315 42.9664 28.4822 310.689 
Ar 0.0612821 1.12564 5.00256 21.0943 297.217 -70.7537 
Ar 1.94843 7.41667 0.772738 -179.408 -126.331 205.723 
Ar 0.34582 7.84828 3.54933 92.9105 -12.9241 242.148 
Ar 2.33922 5.08007 2.19794 -79.6633 -49.0132 -111.421 
Ar 10.3882 5.0679 0.0872354 -37.3263 -50.5172 23.3223 
Ar 2.92634 6.88297 5.33203 79.2906 -268.998 19.6856 
Ar 0.431919 7.50841 8.5785 115.031 -89.223 187.874 
Ar 2.41725 5.67538 7.53627 -55.6945 111.838 -96.23 
Ar 1.08789 4.91424 4.31361 289.507 -91.2195 -254.198 
Ar 7.57385 2.32694 0.158121 -83.357 -80.0726 43.0045 
Ar 4.04554 2.83801 1.36725 -369.286 44.0289 -348.07 
Ar 7.90868 0.396457 2.47922 4.14012 105.696 -39.7971 
Ar 5.48405 10.1987 10.2794 59.1671 -89.8682 -67.4611 
Ar 6.31563 2.52772 5.08611 -436.585 -96.3979 -32.0217 
Ar 6.27322 1.69251 7.86945 266.472 -247.08 -10.4811 
Ar 9.33736 9.86711 8.44733 380.333 -181.838 146.422 
Ar 5.9715 0.838445 5.41702 207.953 296.157 30.7788 
Ar 8.11456 8.42548 0.580778 59.0624 140.106 153.477 
Ar 4.7531 8.08322 3.5806 -134.642 49.0626 251.82 
Ar 7.82155 5.81374 2.7521 -18.3015 146.365 32.2849 
Ar 4.71153 5.68763 10.1429 -144.305 113.18 -106.279 
Ar 8.50209 7.78735 5.41616 160.113 -27.8448 41.3636 
Ar 5.90031 7.71169 8.00711 168.37 -48.3996 30.5667 
Ar 8.28763 5.04499 7.76458 103.335 -56.1805 -33.7631 
Ar 5.18426 5.58536 5.86953 -21.9208 87.3472 160.693 
