48
Argon
Ar 1 1 0 0 0 0 
Ar 0 1 1 0 0 0 
Ar 1 0 1 0 0 0 
Ar 0 0 0 0 0 0 
Ar 1 1 2 0 0 0 
Ar 0 1 3 0 0 0 
Ar 1 0 3 0 0 0 
Ar 0 0 2 0 0 0 
Ar 1 1 4 0 0 0 
Ar 0 1 5 0 0 0 
Ar 1 0 5 0 0 0 
Ar 0 0 4 0 0 0 
Ar 1 3 0 0 0 0 
Ar 0 3 1 0 0 0 
Ar 1 2 1 0 0 0 
Ar 0 2 0 0 0 0 
Ar 1 3 2 0 0 0 
Ar 0 3 3 0 0 0 
Ar 1 2 3 0 0 0 
Ar 0 2 2 0 0 0 
Ar 1 3 4 0 0 0 
Ar 0 3 5 0 0 0 
Ar 1 2 5 0 0 0 
Ar 0 2 4 0 0 0 
Ar 3 1 0 0 0 0 
Ar 2 1 1 0 0 0 
Ar 3 0 1 0 0 0 
Ar 2 0 0 0 0 0 
Ar 3 1 2 0 0 0 
Ar 2 1 3 0 0 0 
Ar 3 0 3 0 0 0 
Ar 2 0 2 0 0 0 
Ar 3 1 4 0 0 0 
Ar 2 1 5 0 0 0 
Ar 3 0 5 0 0 0 
Ar 2 0 4 0 0 0 
Ar 3 3 0 0 0 0 
Ar 2 3 1 0 0 0 
Ar 3 2 1 0 0 0 
Ar 2 2 0 0 0 0 
Ar 3 3 2 0 0 0 
Ar 2 3 3 0 0 0 
Ar 3 2 3 0 0 0 
Ar 2 2 2 0 0 0 
Ar 3 3 4 0 0 0 
Ar 2 3 5 0 0 0 
Ar 3 2 5 0 0 0 
Ar 2 2 4 0 0 0 
